function mpc = case_ny2bus_v3
%CASE_NY2BUS_V3

%% MATPOWER Case Format : Version 2
mpc.version = '2';

%%-----  Power Flow Data  -----%%
%% system MVA base
mpc.baseMVA = 100;

%% bus data
%	bus_i	type	Pd          Qd	Gs	Bs	area	Vm	Va	baseKV	zone	Vmax	Vmin
mpc.bus = [
	1       3       9399.75311	0	0	0	1       1	0	765     1       1.1     0.9;
	2       1       24568.7584	0	0	0	1       1	0	765     2       1.1     0.9;
];

%% generator data
%	bus	Pg	Qg	Qmax	Qmin	Vg	mBase	status	Pmax	Pmin	Pc1	Pc2	Qc1min	Qc1max	Qc2min	Qc2max	ramp_agc	ramp_10	ramp_30	ramp_q	apf
mpc.gen = [
	2	2.7	0	1.35	-1.35	1	100	1	2.7	0.73874669	0	0	0	0	0	0	0	0	0	0	0;
	2	2.5	0	1.25	-1.25	1	100	1	2.5	0.684024713	0	0	0	0	0	0	0	0	0	0	0;
	2	3.5	0	1.75	-1.75	1	100	1	3.5	1.08828155	0	0	0	0	0	0	0	0	0	0	0;
	2	1	0	0.5	-0.5	1	100	1	1	0	0	0	0	0	0	0	0	0	0	0	0;
	2	2	0	0	0	1.02	3	1	2	0	0	0	0	0	0	0	0	0	0	0	0;
	2	0.9	0	0.45	-0.45	1	100	1	0.9	0.059329309	0	0	0	0	0	0	0	0	0	0	0;
	2	21.6	0	10.8	-10.8	1	100	1	21.6	6.71625184	0	0	0	0	0	0	0	0	0	0	0;
	2	3.2	0	0	0	1.01	3.6	1	3.2	0	0	0	0	0	0	0	0	0	0	0	0;
	2	2	0	1	-1	1	100	1	2	0.131842908	0	0	0	0	0	0	0	0	0	0	0;
	2	21.6	0	10.8	-10.8	1	100	1	21.6	6.71625184	0	0	0	0	0	0	0	0	0	0	0;
	1	7.5	0	3.75	-3.75	1	100	1	7.5	0	0	0	0	0	0	0	0	0	0	0	0;
	2	0	98.76	283.6	-88.23	1.03	690	1	621	151.340374	0	0	0	0	0	0	0	0	0	0	0;
	2	3.46319343	98.78	277.2	-41.34	1.03	690	1	621	0	0	0	0	0	0	0	0	0	0	0	0;
	2	239.4	101.1	101.1	-39.07	1.04	281.6	1	239.4	92.6709677	0	0	0	0	0	0	0	0	0	0	0;
	2	147.1	88.3	88.3	-32.05	1.04	173	1	147.1	65.0405306	0	0	0	0	0	0	0	0	0	0	0;
	2	73.5	50.1	50.1	-15.44	1.04	70.6	1	73.5	34.453125	0	0	0	0	0	0	0	0	0	0	0;
	2	72	49.8	49.8	-13.79	1.04	70.6	1	72	35.0081037	0	0	0	0	0	0	0	0	0	0	0;
	2	9.2	0	4.6	-4.6	1	100	1	9.2	2.8632904	0	0	0	0	0	0	0	0	0	0	0;
	2	0	0	0	0	1.04	3.44	1	5.4	2	0	0	0	0	0	0	0	0	0	0	0;
	2	0	0	0	0	1.04	3.44	1	5.4	2	0	0	0	0	0	0	0	0	0	0	0;
	2	5.5	-2	1	-1	1.02	3	1	5.5	0	0	0	0	0	0	0	0	0	0	0	0;
	2	5.5	-2	1	-1	1.02	3	1	5.5	0	0	0	0	0	0	0	0	0	0	0	0;
	2	5.1	0	2.55	-2.55	1	100	1	5.1	0	0	0	0	0	0	0	0	0	0	0	0;
	2	5.1	0	2.55	-2.55	1	100	1	5.1	0	0	0	0	0	0	0	0	0	0	0	0;
	2	5	0	2.5	-2.5	1	100	1	5	0	0	0	0	0	0	0	0	0	0	0	0;
	1	25	0	12.5	-12.5	1	100	1	25	0	0	0	0	0	0	0	0	0	0	0	0;
	2	0	97.8	57.3	-15	1.04	81	1	156.2	47.831579	0	0	0	0	0	0	0	0	0	0	0;
	2	200	96.58	74.5	-7.7	1.04	100	1	200	65.2406417	0	0	0	0	0	0	0	0	0	0	0;
	2	0	0	44	-34	1.03	56	1	31.8	0	0	0	0	0	0	0	0	0	0	0	0;
	2	0	0	44	-34	1.03	56	1	37.8	0	0	0	0	0	0	0	0	0	0	0	0;
	2	0	0	10	-10	1	100	1	20	6.2187517	0	0	0	0	0	0	0	0	0	0	0;
	2	0	0	10	-10	1	100	1	20	6.2187517	0	0	0	0	0	0	0	0	0	0	0;
	2	20	0	10	-10	1	100	1	20	6.2187517	0	0	0	0	0	0	0	0	0	0	0;
	2	0	23.67	45.2	-26.8	1.05	92	1	60.3	0	0	0	0	0	0	0	0	0	0	0	0;
	2	20	0	10	-10	1	100	1	20	6.2187517	0	0	0	0	0	0	0	0	0	0	0;
	2	20	0	10	-10	1	100	1	20	6.2187517	0	0	0	0	0	0	0	0	0	0	0;
	2	20	0	10	-10	1	100	1	20	6.2187517	0	0	0	0	0	0	0	0	0	0	0;
	2	20	0	10	-10	1	100	1	20	6.2187517	0	0	0	0	0	0	0	0	0	0	0;
	2	0	24.42	47.6	-22.4	1.05	92	1	70.8	60	0	0	0	0	0	0	0	0	0	0	0;
	2	0	0	45.9	-25.5	1	92	1	66	60	0	0	0	0	0	0	0	0	0	0	0;
	2	20	0	10	-10	1	100	1	20	6.2187517	0	0	0	0	0	0	0	0	0	0	0;
	2	20	0	10	-10	1	100	1	20	6.2187517	0	0	0	0	0	0	0	0	0	0	0;
	2	20	0	10	-10	1	100	1	20	6.2187517	0	0	0	0	0	0	0	0	0	0	0;
	2	20	0	10	-10	1	100	1	20	6.2187517	0	0	0	0	0	0	0	0	0	0	0;
	2	0	24.63	48	-21.6	1.05	92	1	72.7	60	0	0	0	0	0	0	0	0	0	0	0;
	2	20	0	10	-10	1	100	1	20	6.2187517	0	0	0	0	0	0	0	0	0	0	0;
	2	20	0	10	-10	1	100	1	20	6.2187517	0	0	0	0	0	0	0	0	0	0	0;
	2	20	0	10	-10	1	100	1	20	6.2187517	0	0	0	0	0	0	0	0	0	0	0;
	2	20	0	10	-10	1	100	1	20	6.2187517	0	0	0	0	0	0	0	0	0	0	0;
	2	0	23.96	50	-22.72	1.05	92	1	65.4	60	0	0	0	0	0	0	0	0	0	0	0;
	2	20	0	10	-10	1	100	1	20	6.2187517	0	0	0	0	0	0	0	0	0	0	0;
	2	20	0	10	-10	1	100	1	20	6.2187517	0	0	0	0	0	0	0	0	0	0	0;
	2	20	0	10	-10	1	100	1	20	6.2187517	0	0	0	0	0	0	0	0	0	0	0;
	2	20	0	10	-10	1	100	1	20	6.2187517	0	0	0	0	0	0	0	0	0	0	0;
	2	0	24.22	47.6	-22.12	1.05	92	1	67.9	60	0	0	0	0	0	0	0	0	0	0	0;
	2	0	0	11	-11	1	100	1	22	6.84062687	0	0	0	0	0	0	0	0	0	0	0;
	2	0	0	11	-11	1	100	1	22	6.84062687	0	0	0	0	0	0	0	0	0	0	0;
	2	0	0	11	-11	1	100	1	22	6.84062687	0	0	0	0	0	0	0	0	0	0	0;
	2	0	23.66	44.8	-24.4	1.05	118.4	1	74.8	54.8	0	0	0	0	0	0	0	0	0	0	0;
	2	0	0	0.4	-0.4	1	100	0	0.8	0.052737163	0	0	0	0	0	0	0	0	0	0	0;
	2	0	0	0.4	-0.4	1	100	0	0.8	0.052737163	0	0	0	0	0	0	0	0	0	0	0;
	2	0	0	11	-11	1	100	1	22	6.84062687	0	0	0	0	0	0	0	0	0	0	0;
	2	0	0	11	-11	1	100	1	22	6.84062687	0	0	0	0	0	0	0	0	0	0	0;
	2	0	0	11	-11	1	100	1	22	6.84062687	0	0	0	0	0	0	0	0	0	0	0;
	2	0	23.75	45.3	-24.5	1.05	118.4	1	70.9	54.8	0	0	0	0	0	0	0	0	0	0	0;
	2	0	0	11	-11	1	100	1	22	6.84062687	0	0	0	0	0	0	0	0	0	0	0;
	2	0	0	11	-11	1	100	1	22	6.84062687	0	0	0	0	0	0	0	0	0	0	0;
	2	0	0	11	-11	1	100	1	22	6.84062687	0	0	0	0	0	0	0	0	0	0	0;
	2	0	23.62	46.8	-24.8	1.05	118.4	1	69.1	54.8	0	0	0	0	0	0	0	0	0	0	0;
	2	0	0	11	-11	1	100	1	22	6.84062687	0	0	0	0	0	0	0	0	0	0	0;
	2	0	0	11	-11	1	100	1	22	6.84062687	0	0	0	0	0	0	0	0	0	0	0;
	2	0	0	11	-11	1	100	1	22	6.84062687	0	0	0	0	0	0	0	0	0	0	0;
	2	0	23.6	46.8	-24.8	1.05	118.4	1	68.9	54.8	0	0	0	0	0	0	0	0	0	0	0;
	2	16	0	8	-8	1	100	1	16	3.40987979	0	0	0	0	0	0	0	0	0	0	0;
	2	0	11.31	58	-40	1.04	93	1	72.4	0	0	0	0	0	0	0	0	0	0	0	0;
	2	53	0	26.5	-26.5	1	100	1	53	16.479692	0	0	0	0	0	0	0	0	0	0	0;
	2	0	12.03	58	-40	1.04	93	1	70.7	57	0	0	0	0	0	0	0	0	0	0	0;
	2	0	0	58	-40	1.02	93	1	68.4	57	0	0	0	0	0	0	0	0	0	0	0;
	2	0	0	58	-40	1.02	93	1	66.8	0	0	0	0	0	0	0	0	0	0	0	0;
	2	0	0	58	-40	1.02	93	1	65	0	0	0	0	0	0	0	0	0	0	0	0;
	2	0	0	58	-40	1.02	93	1	67	0	0	0	0	0	0	0	0	0	0	0	0;
	2	0	0	47.9	-27.2	1	92	1	66.5	60	0	0	0	0	0	0	0	0	0	0	0;
	2	0	0	0.45	-0.45	1	100	0	0.9	0.059329309	0	0	0	0	0	0	0	0	0	0	0;
	2	0	0	0.45	-0.45	1	100	0	0.9	0.059329309	0	0	0	0	0	0	0	0	0	0	0;
	2	2.74147321	0	10	-10	1	100	1	20	6.2187517	0	0	0	0	0	0	0	0	0	0	0;
	2	0	0	10	-10	1	100	1	20	6.2187517	0	0	0	0	0	0	0	0	0	0	0;
	2	20	0	10	-10	1	100	1	20	6.2187517	0	0	0	0	0	0	0	0	0	0	0;
	2	0	23.56	50	-22.72	1.05	92	1	61.1	0	0	0	0	0	0	0	0	0	0	0	0;
	2	170	1.41	47.4	-52.1	1.04	213	1	170	0	0	0	0	0	0	0	0	0	0	0	0;
	2	0	0	9.3	-9.3	1	100	1	18.6	5.78343908	0	0	0	0	0	0	0	0	0	0	0;
	2	0	0	12.5	-12.5	1	100	1	25	7.77343962	0	0	0	0	0	0	0	0	0	0	0;
	2	0	0	21.45	-21.45	1	100	1	42.9	13.3392224	0	0	0	0	0	0	0	0	0	0	0;
	2	80	0	40	-40	1	100	1	80	17.049399	0	0	0	0	0	0	0	0	0	0	0;
	2	17.1	0	8.55	-8.55	1	100	1	17.1	5.3170327	0	0	0	0	0	0	0	0	0	0	0;
	2	59.7	31.71	35	0	1.02	65	1	59.7	0	0	0	0	0	0	0	0	0	0	0	0;
	2	0	37.79	49	-11.55	1.04	100	1	184.6	0	0	0	0	0	0	0	0	0	0	0	0;
	2	180	52.84	98	-61.5	1.05	208	1	180	36.3636364	0	0	0	0	0	0	0	0	0	0	0;
	2	180	66.4	98	-61.5	1.05	208	1	180	36.3881402	0	0	0	0	0	0	0	0	0	0	0;
	2	0	0	0.2	-0.2	1	100	0	0.4	0.026368582	0	0	0	0	0	0	0	0	0	0	0;
	2	0	0	0.4	-0.4	1	100	0	0.8	0.052737163	0	0	0	0	0	0	0	0	0	0	0;
	2	0	0	0.4	-0.4	1	100	0	0.8	0.052737163	0	0	0	0	0	0	0	0	0	0	0;
	2	0	0	0.4	-0.4	1	100	0	0.8	0.052737163	0	0	0	0	0	0	0	0	0	0	0;
	2	0	0	0.4	-0.4	1	100	0	0.8	0.052737163	0	0	0	0	0	0	0	0	0	0	0;
	2	0	0	0.4	-0.4	1	100	0	0.8	0.052737163	0	0	0	0	0	0	0	0	0	0	0;
	2	0	0	10	0	1.03	21.88	1	19.8	0	0	0	0	0	0	0	0	0	0	0	0;
	2	0	0	10	0	1.03	21.88	1	20.1	0	0	0	0	0	0	0	0	0	0	0	0;
	2	170	0	85	-85	1	100	1	170	41.0323167	0	0	0	0	0	0	0	0	0	0	0;
	2	535.5	57.96	312.7	-176.1	1.04	595	1	535.5	147.818128	0	0	0	0	0	0	0	0	0	0	0;
	2	1299	426.74	495.3	-92.1	1.03	1439	1	1299	386.548522	0	0	0	0	0	0	0	0	0	0	0;
	2	1027	161.53	332.3	-133	1.04	556	1	1027	189.49738	0	0	0	0	0	0	0	0	0	0	0;
	2	0	0	10	-10	1	100	1	20	6.2187517	0	0	0	0	0	0	0	0	0	0	0;
	2	229.144329	100.29	95	-84	1.04	202	1	376.2	73.6362654	0	0	0	0	0	0	0	0	0	0	0;
	2	376	170.3	142.4	-83.6	1.03	202	1	376	69.8916638	0	0	0	0	0	0	0	0	0	0	0;
	2	0	0	7.55	-7.55	1	100	1	15.1	4.69515753	0	0	0	0	0	0	0	0	0	0	0;
	2	19.2	0	9.6	-9.6	1	100	1	19.2	5.97000163	0	0	0	0	0	0	0	0	0	0	0;
	2	31.8	0	15.9	-15.9	1	100	1	31.8	9.8878152	0	0	0	0	0	0	0	0	0	0	0;
	2	31.8	0	15.9	-15.9	1	100	1	31.8	9.8878152	0	0	0	0	0	0	0	0	0	0	0;
	2	0	0	23.25	-23.25	1	100	1	46.5	14.4585977	0	0	0	0	0	0	0	0	0	0	0;
	2	0	0	23.25	-23.25	1	100	1	46.5	14.4585977	0	0	0	0	0	0	0	0	0	0	0;
	2	0	0	23.25	-23.25	1	100	1	46.5	14.4585977	0	0	0	0	0	0	0	0	0	0	0;
	2	0	0	23.25	-23.25	1	100	1	46.5	14.4585977	0	0	0	0	0	0	0	0	0	0	0;
	2	0	0	23.25	-23.25	1	100	1	46.5	14.4585977	0	0	0	0	0	0	0	0	0	0	0;
	2	0	0	23.25	-23.25	1	100	1	46.5	14.4585977	0	0	0	0	0	0	0	0	0	0	0;
	2	249	0	124.5	-124.5	1	100	1	249	53.0662543	0	0	0	0	0	0	0	0	0	0	0;
	2	361.109621	278.4	147.5	-78	1.02	227	1	387	68.9523902	0	0	0	0	0	0	0	0	0	0	0;
	2	400	202.02	122.8	-86	1.05	212	1	400	89.6458987	0	0	0	0	0	0	0	0	0	0	0;
	2	400	208.88	143.4	-80.9	1.05	212	1	400	90.5797101	0	0	0	0	0	0	0	0	0	0	0;
	2	0	0	10	-5	0	21.18	1	87.6	0	0	0	0	0	0	0	0	0	0	0	0;
	2	0	0	10	-5	0	21.18	1	87.6	0	0	0	0	0	0	0	0	0	0	0	0;
	2	0	0	10	-5	0	21.18	1	87.6	0	0	0	0	0	0	0	0	0	0	0	0;
	2	48.9	17.16	20.16	-12.32	1.05	55.4	1	48.9	0	0	0	0	0	0	0	0	0	0	0	0;
	2	48.9	17.16	19.15	-11.7	1.05	55.4	1	48.9	0	0	0	0	0	0	0	0	0	0	0	0;
	2	27	9.69	11.09	-6.78	1.05	28	1	27	0	0	0	0	0	0	0	0	0	0	0	0;
	2	0	0	12.5	-12.5	1	100	1	25	7.77343962	0	0	0	0	0	0	0	0	0	0	0;
	2	0	0	41.9	-4.8	0.99	200	1	55.7	15	0	0	0	0	0	0	0	0	0	0	0;
	2	0	0	11	-11	1	100	1	22	6.84062687	0	0	0	0	0	0	0	0	0	0	0;
	2	0	0	21.45	-21.45	1	100	1	42.9	13.3392224	0	0	0	0	0	0	0	0	0	0	0;
	2	0	15.8	61.5	-44.2	1.03	125	1	121	0	0	0	0	0	0	0	0	0	0	0	0;
	2	40	15.4	15.4	-11	1.03	125	1	40	14.2755175	0	0	0	0	0	0	0	0	0	0	0;
	2	40	18.5	18.5	-13.3	1.03	125	1	40	14.2755175	0	0	0	0	0	0	0	0	0	0	0;
	2	0	35.15	62	-44.5	1.05	125	1	121	0	0	0	0	0	0	0	0	0	0	0	0;
	2	200	0	100	-100	1	100	1	200	48.2733138	0	0	0	0	0	0	0	0	0	0	0;
	2	200	0	100	-100	1	100	1	200	48.2733138	0	0	0	0	0	0	0	0	0	0	0;
	2	250	0	125	-125	1	100	1	250	53.2793718	0	0	0	0	0	0	0	0	0	0	0;
	2	0	0	0	0	1	19.2	1	19.2	17.7116279	0	0	0	0	0	0	0	0	0	0	0;
	2	0	0	0	0	1	38.4	1	24.1	23.7	0	0	0	0	0	0	0	0	0	0	0;
	2	0.5	0	0.25	-0.25	1	100	1	0.5	0.032960727	0	0	0	0	0	0	0	0	0	0	0;
	2	0.5	0	0.25	-0.25	1	100	1	0.5	0.032960727	0	0	0	0	0	0	0	0	0	0	0;
	2	1.1	0	0.55	-0.55	1	100	1	1.1	0.072513599	0	0	0	0	0	0	0	0	0	0	0;
	2	1.5	0	0.75	-0.75	1	100	1	1.5	0.098882181	0	0	0	0	0	0	0	0	0	0	0;
	2	0	0	24	-1.4	1.02	87.5	1	73.4	30	0	0	0	0	0	0	0	0	0	0	0;
	2	0	0	12	-2.02	1.01	87.5	1	68.8	0	0	0	0	0	0	0	0	0	0	0	0;
	2	0	0	16.8	-5.3	1.02	87.5	1	72.7	51	0	0	0	0	0	0	0	0	0	0	0;
	2	0	0	10.55	-10.55	1	100	1	21.1	6.56078304	0	0	0	0	0	0	0	0	0	0	0;
	2	0	0	11	-11	1	100	1	22	6.84062687	0	0	0	0	0	0	0	0	0	0	0;
	2	0	0	21.8	-3.4	0.98	87.5	1	69.6	0	0	0	0	0	0	0	0	0	0	0	0;
	2	200.5	29.84	105.3	-47.31	1	176.47	1	200.5	41.2976313	0	0	0	0	0	0	0	0	0	0	0;
	2	197.5	29.73	108	-61	1	220.59	1	197.5	40	0	0	0	0	0	0	0	0	0	0	0;
	2	0	0	7.6	-4.46	1	21.18	1	134.3	41.4506173	0	0	0	0	0	0	0	0	0	0	0;
	2	0	0	7.6	-4.46	1	21.18	1	134.3	38.8150289	0	0	0	0	0	0	0	0	0	0	0;
	2	0	0	7.6	-4.46	1	21.18	1	134.3	38.8150289	0	0	0	0	0	0	0	0	0	0	0;
	2	0	0	7.6	-4.46	1	21.18	1	134.3	42.2327044	0	0	0	0	0	0	0	0	0	0	0;
	2	0	0	7.6	-4.46	1	21.18	1	134.3	39.2690058	0	0	0	0	0	0	0	0	0	0	0;
	2	0	0	7.6	-4.46	1	21.18	1	134.3	39.7337278	0	0	0	0	0	0	0	0	0	0	0;
	2	0	0	7.6	-4.46	1	21.18	1	134.3	39.5	0	0	0	0	0	0	0	0	0	0	0;
	2	0	0	21.5	-2.98	0.97	41.5	1	161.1	58.0889423	0	0	0	0	0	0	0	0	0	0	0;
	2	0	0	23.4	-4.42	0.97	41.5	1	161.1	61.1772152	0	0	0	0	0	0	0	0	0	0	0;
	2	0	0	23.4	-4.42	0.97	41.5	1	161.1	62.2809278	0	0	0	0	0	0	0	0	0	0	0;
	2	0	0	23	-4.23	0.97	41.5	1	161.1	58.6529126	0	0	0	0	0	0	0	0	0	0	0;
	2	0	0	7.6	-16.8	0.99	71.18	1	60.5	5.65420561	0	0	0	0	0	0	0	0	0	0	0;
	2	0.2	0	0.1	-0.1	1	100	1	0.2	0.013184291	0	0	0	0	0	0	0	0	0	0	0;
	2	0.2	0	0.1	-0.1	1	100	1	0.2	0.013184291	0	0	0	0	0	0	0	0	0	0	0;
	2	0.2	0	0.1	-0.1	1	100	1	0.2	0.013184291	0	0	0	0	0	0	0	0	0	0	0;
	2	5.7	0	2.85	-2.85	1	100	1	5.7	1.77234424	0	0	0	0	0	0	0	0	0	0	0;
	2	107.2	18.06	64.6	-14.51	1	140	1	107.2	20	0	0	0	0	0	0	0	0	0	0	0;
	2	19.559096	11.4	19.6	-20.03	1.01	71.18	1	60.5	5.74003795	0	0	0	0	0	0	0	0	0	0	0;
	2	0.2	0	0.1	-0.1	1	100	1	0.2	0.013184291	0	0	0	0	0	0	0	0	0	0	0;
	2	0.2	0	0.1	-0.1	1	100	1	0.2	0.013184291	0	0	0	0	0	0	0	0	0	0	0;
	2	0.7	0	0.35	-0.35	1	100	1	0.7	0.046145018	0	0	0	0	0	0	0	0	0	0	0;
	2	0	24.73	36.6	-27.23	0.98	140	1	117	20	0	0	0	0	0	0	0	0	0	0	0;
	2	0	26.53	34.1	-17.92	0.98	140	1	115.5	20	0	0	0	0	0	0	0	0	0	0	0;
	2	0	13.75	27	-18	1.02	56	1	55	31.1909263	0	0	0	0	0	0	0	0	0	0	0;
	2	0	13.75	27	-18	1.02	56	1	55	31.7919075	0	0	0	0	0	0	0	0	0	0	0;
	2	60.5	0	30.25	-30.25	1	100	1	60.5	18.8117239	0	0	0	0	0	0	0	0	0	0	0;
	2	60	0	30	-30	1	100	1	60	18.6562551	0	0	0	0	0	0	0	0	0	0	0;
	2	78.6	21.46	37	-17	0.98	88.23	1	78.6	0	0	0	0	0	0	0	0	0	0	0	0;
	2	1.1	0	0.55	-0.55	1	100	1	1.1	0.072513599	0	0	0	0	0	0	0	0	0	0	0;
	2	1.1	0	0.55	-0.55	1	100	1	1.1	0.072513599	0	0	0	0	0	0	0	0	0	0	0;
	2	0	0.96	19.3	-9.3	1	45.8	1	45.8	0	0	0	0	0	0	0	0	0	0	0	0;
	2	0	0.96	5.7	-0.7	1	18	1	45.8	0	0	0	0	0	0	0	0	0	0	0	0;
	2	60	2.89	28.8	-20.05	1.01	67.5	1	60	7.04225352	0	0	0	0	0	0	0	0	0	0	0;
	2	1.3	0	0.65	-0.65	1	100	1	1.3	0.08569789	0	0	0	0	0	0	0	0	0	0	0;
	2	36	-1.87	12.6	-14.81	1	41.2	1	36	0	0	0	0	0	0	0	0	0	0	0	0;
	2	71.1	18.6	3.6	-1.7	0.98	16.2	1	71.1	0	0	0	0	0	0	0	0	0	0	0	0;
	2	0	18.6	7.5	-3.6	0.98	33.7	1	71.1	0	0	0	0	0	0	0	0	0	0	0	0;
	2	0	18.6	7.5	-3.6	0.98	33.7	1	71.1	0	0	0	0	0	0	0	0	0	0	0	0;
	2	0.4	0	0.2	-0.2	1	100	1	0.4	0.026368582	0	0	0	0	0	0	0	0	0	0	0;
	2	0	4.84	20	-20	0.99	71.18	1	60	6.62251656	0	0	0	0	0	0	0	0	0	0	0;
	2	28	0	14	-14	1	100	1	28	8.71436208	0	0	0	0	0	0	0	0	0	0	0;
	2	0	-15.47	127.1	-152.62	1.01	430.1	1	395.7	100	0	0	0	0	0	0	0	0	0	0	0;
	2	393.7	-15.28	153.7	-134.31	1.01	430.1	1	393.7	103.14383	0	0	0	0	0	0	0	0	0	0	0;
	2	399.7	26.86	148	-152.62	1.01	430.1	1	399.7	101.138664	0	0	0	0	0	0	0	0	0	0	0;
	2	399.2	25.8	160	-136.54	1.01	430.1	1	399.2	100	0	0	0	0	0	0	0	0	0	0	0;
	2	0	-3.55	8.3	-3.55	1.07	19	1	16	0	0	0	0	0	0	0	0	0	0	0	0;
	2	1.3	0	0.65	-0.65	1	100	1	1.3	0.08569789	0	0	0	0	0	0	0	0	0	0	0;
	2	1.3	0	0.65	-0.65	1	100	1	1.3	0.08569789	0	0	0	0	0	0	0	0	0	0	0;
	2	12.5	0	6.25	-6.25	1	100	1	12.5	3.89034021	0	0	0	0	0	0	0	0	0	0	0;
	2	50	6.87	19.5	-23.59	1.01	71.18	1	50	5.60538117	0	0	0	0	0	0	0	0	0	0	0;
	2	50	6.87	19.6	-15.91	1.01	71.18	1	50	5.77367205	0	0	0	0	0	0	0	0	0	0	0;
	2	82	0.48	24.7	-19.1	1	71.2	1	82	0	0	0	0	0	0	0	0	0	0	0	0;
	2	82	0.48	5	-5	1	37.7	1	82	0	0	0	0	0	0	0	0	0	0	0	0;
	2	0	0	18.8	-3.85	0.99	58.82	1	52.4	16.0736196	0	0	0	0	0	0	0	0	0	0	0;
	2	196.2	0.64	110	-90	1.02	185.22	1	196.2	0	0	0	0	0	0	0	0	0	0	0	0;
	2	152.7	0.72	80	-60	1.02	158.77	1	152.7	0	0	0	0	0	0	0	0	0	0	0	0;
	2	1.2	0	0.6	-0.6	1	100	1	1.2	0.079105745	0	0	0	0	0	0	0	0	0	0	0;
	2	1.8	0	0.9	-0.9	1	100	1	1.8	0.118658617	0	0	0	0	0	0	0	0	0	0	0;
	2	3.8	0	1.9	-1.9	1	100	1	3.8	0.250501525	0	0	0	0	0	0	0	0	0	0	0;
	2	0	0	5	-5	1	100	1	10	3.11227217	0	0	0	0	0	0	0	0	0	0	0;
	2	31.5	0	15.75	-15.75	1	100	1	31.5	8.61871138	0	0	0	0	0	0	0	0	0	0	0;
	2	0	46.88	19.2	-14.77	1	63	1	253.6	23.9697543	0	0	0	0	0	0	0	0	0	0	0;
	2	0	46.88	21.8	-9.42	1	63	1	253.6	24.4787645	0	0	0	0	0	0	0	0	0	0	0;
	2	0	46.88	21.2	-12.33	1	63	1	253.6	26.8644068	0	0	0	0	0	0	0	0	0	0	0;
	2	0	46.88	21.9	-12.62	1	63	1	253.6	25.5645161	0	0	0	0	0	0	0	0	0	0	0;
	2	0	46.88	20.3	-13.34	1	63	1	253.6	24.3378119	0	0	0	0	0	0	0	0	0	0	0;
	2	0	64.39	20.4	-17.93	1	63	1	268.3	24.8425926	0	0	0	0	0	0	0	0	0	0	0;
	2	0	64.39	20	-10.74	1	63	1	268.3	23.7014134	0	0	0	0	0	0	0	0	0	0	0;
	2	0	64.39	17.5	-14.08	1	63	1	268.3	24.8425926	0	0	0	0	0	0	0	0	0	0	0;
	2	0	64.39	11.4	-18.95	1	63	1	268.3	25.5038023	0	0	0	0	0	0	0	0	0	0	0;
	2	0	64.39	21.1	-15.12	1	63	1	268.3	26.2524462	0	0	0	0	0	0	0	0	0	0	0;
	2	0	6.78	21	-14	1.02	55.4	1	47	0	0	0	0	0	0	0	0	0	0	0	0;
	2	196.7	14.69	59.9	-45.38	1	176.47	1	196.7	40.787973	0	0	0	0	0	0	0	0	0	0	0;
	2	197.2	48.7	48.7	-32.61	1.02	176.47	1	197.2	41.8018018	0	0	0	0	0	0	0	0	0	0	0;
	2	16	0	7.6	-3.09	1	19	1	16	0	0	0	0	0	0	0	0	0	0	0	0;
	2	53	0.85	20.6	-13.1	1.01	71.18	1	53	6.95538058	0	0	0	0	0	0	0	0	0	0	0;
	2	53	6.3	26	-12.77	1.01	71.18	1	53	7.20108696	0	0	0	0	0	0	0	0	0	0	0;
	2	0	1.73	16	-6	1.01	71.18	1	50	5.80046404	0	0	0	0	0	0	0	0	0	0	0;
	2	0	1.73	6	-4	1.01	71.18	1	50	5.8685446	0	0	0	0	0	0	0	0	0	0	0;
	2	0	-1.13	8.6	-1.13	1.01	16.5	1	14	5.98290598	0	0	0	0	0	0	0	0	0	0	0;
	2	0	0	22	-11.92	1.02	99	1	81.2	15.1681196	0	0	0	0	0	0	0	0	0	0	0;
	2	0	0	22	-12	1.02	99	1	80.5	15	0	0	0	0	0	0	0	0	0	0	0;
	2	1.3	0	0.65	-0.65	1	100	1	1.3	0.08569789	0	0	0	0	0	0	0	0	0	0	0;
	2	0	5.41	22.3	-12	1.01	99.4	1	80.4	15	0	0	0	0	0	0	0	0	0	0	0;
	2	0	-0.27	7.9	-3.15	1.02	20	1	21.3	0	0	0	0	0	0	0	0	0	0	0	0;
	2	0	0	0.4	-0.38	0.97	2.5	1	6	0	0	0	0	0	0	0	0	0	0	0	0;
	2	0	0	1	0	0.97	2.5	1	6	0	0	0	0	0	0	0	0	0	0	0	0;
	2	0	0	1	0	0.97	2.5	1	6	0	0	0	0	0	0	0	0	0	0	0	0;
	2	0	4.8	4.8	-6.42	0.95	12.5	1	11.5	0	0	0	0	0	0	0	0	0	0	0	0;
	1	11.5	0	5.75	-5.75	1	100	1	11.5	0	0	0	0	0	0	0	0	0	0	0	0;
	1	112	3.94	3.94	-3.94	1	13.34	1	112	0	0	0	0	0	0	0	0	0	0	0	0;
	1	70.5	0	0	0	1.04	7.5	1	87.5	0	0	0	0	0	0	0	0	0	0	0	0;
	1	0	110.87	192.3	-118.4	1.04	727.9	1	684.8	197.172756	0	0	0	0	0	0	0	0	0	0	0;
	1	37.5	0	18.75	-18.75	1	100	1	37.5	0	0	0	0	0	0	0	0	0	0	0	0;
	1	0	0	3.5	-3.5	1	100	1	7	2.1765631	0	0	0	0	0	0	0	0	0	0	0;
	1	0	0	7.5	-7.5	1	100	1	15	4.66840826	0	0	0	0	0	0	0	0	0	0	0;
	2	1.6	0	0.8	-0.8	1	100	1	1.6	0.105474326	0	0	0	0	0	0	0	0	0	0	0;
	2	2.6	0	1.3	-1.3	1	100	1	2.6	0	0	0	0	0	0	0	0	0	0	0	0;
	2	3.3	0	1.65	-1.65	1	100	1	3.3	0	0	0	0	0	0	0	0	0	0	0	0;
	2	5.7	0	2.85	-2.85	1	100	1	5.7	0	0	0	0	0	0	0	0	0	0	0	0;
	2	5.7	0	2.85	-2.85	1	100	1	5.7	0	0	0	0	0	0	0	0	0	0	0	0;
	2	10	0	5	-5	1	100	1	10	0	0	0	0	0	0	0	0	0	0	0	0;
	1	8	0	4	-4	1	100	1	8	0	0	0	0	0	0	0	0	0	0	0	0;
	1	34.5	0	17.25	-17.25	1	100	1	34.5	0	0	0	0	0	0	0	0	0	0	0	0;
	1	0	0	23.85	-23.85	1	100	1	47.7	14.8317228	0	0	0	0	0	0	0	0	0	0	0;
	2	2.5	0	1.25	-1.25	1	100	1	2.5	0.164803635	0	0	0	0	0	0	0	0	0	0	0;
	2	0	0	0.35	-0.35	1	100	0	0.7	0.046145018	0	0	0	0	0	0	0	0	0	0	0;
	2	0	0	0.35	-0.35	1	100	0	0.7	0.046145018	0	0	0	0	0	0	0	0	0	0	0;
	2	0	0	0.35	-0.35	1	100	0	0.7	0.046145018	0	0	0	0	0	0	0	0	0	0	0;
	2	7	0	3.5	-3.5	1	100	1	7	0	0	0	0	0	0	0	0	0	0	0	0;
	1	6.6	0	3.3	-3.3	1	100	1	6.6	0	0	0	0	0	0	0	0	0	0	0	0;
	1	0	0	12.8	-12.8	1	100	1	25.6	7.96741676	0	0	0	0	0	0	0	0	0	0	0;
	1	1.6	0	0.8	-0.8	1	100	1	1.6	0.105474326	0	0	0	0	0	0	0	0	0	0	0;
	1	0	0	0.55	-0.55	1	100	0	1.1	0.072513599	0	0	0	0	0	0	0	0	0	0	0;
	1	0	0	0.55	-0.55	1	100	0	1.1	0.072513599	0	0	0	0	0	0	0	0	0	0	0;
	1	0	0	0.55	-0.55	1	100	0	1.1	0.072513599	0	0	0	0	0	0	0	0	0	0	0;
	1	0.8	0	0.4	-0.4	1	100	1	0.8	0.052737163	0	0	0	0	0	0	0	0	0	0	0;
	1	0.8	0	0.4	-0.4	1	100	1	0.8	0.052737163	0	0	0	0	0	0	0	0	0	0	0;
	1	0	0	0.2	-0.2	1	100	0	0.4	0	0	0	0	0	0	0	0	0	0	0	0;
	1	0.8	0	0.4	-0.4	1	100	1	0.8	0.052737163	0	0	0	0	0	0	0	0	0	0	0;
	1	0.8	0	0.4	-0.4	1	100	1	0.8	0.052737163	0	0	0	0	0	0	0	0	0	0	0;
	1	0.8	0	0.4	-0.4	1	100	1	0.8	0.052737163	0	0	0	0	0	0	0	0	0	0	0;
	1	0.8	0	0.4	-0.4	1	100	1	0.8	0.052737163	0	0	0	0	0	0	0	0	0	0	0;
	1	0.8	0	0.4	-0.4	1	100	1	0.8	0.052737163	0	0	0	0	0	0	0	0	0	0	0;
	1	1.6	0	0.8	-0.8	1	100	1	1.6	0.105474326	0	0	0	0	0	0	0	0	0	0	0;
	1	1.6	0	0.8	-0.8	1	100	1	1.6	0.105474326	0	0	0	0	0	0	0	0	0	0	0;
	1	1.6	0	0.8	-0.8	1	100	1	1.6	0.105474326	0	0	0	0	0	0	0	0	0	0	0;
	1	1.6	0	0.8	-0.8	1	100	1	1.6	0.105474326	0	0	0	0	0	0	0	0	0	0	0;
	1	0.8	0	0.4	-0.4	1	100	1	0.8	0.052737163	0	0	0	0	0	0	0	0	0	0	0;
	1	1.6	0	0.8	-0.8	1	100	1	1.6	0.105474326	0	0	0	0	0	0	0	0	0	0	0;
	1	0.8	0	0.4	-0.4	1	100	1	0.8	0.052737163	0	0	0	0	0	0	0	0	0	0	0;
	1	3	0	1.5	-1.5	1	100	1	3	0	0	0	0	0	0	0	0	0	0	0	0;
	1	112.5	27	27	-2.22	1	146	1	112.5	59.2662277	0	0	0	0	0	0	0	0	0	0	0;
	1	0	6.5	14.3	-11.1	1.02	46.5	1	50.1	50.1	0	0	0	0	0	0	0	0	0	0	0;
	1	0	6.5	5.9	-4.6	1.02	19.17	1	50.1	48.2349166	0	0	0	0	0	0	0	0	0	0	0;
	1	0	0	0.55	-0.55	1	100	0	1.1	0	0	0	0	0	0	0	0	0	0	0	0;
	1	0	0	0	0	1	2.2	0	11.1	0	0	0	0	0	0	0	0	0	0	0	0;
	1	0	0	0.9	-0.9	1	100	1	1.8	0.383611477	0	0	0	0	0	0	0	0	0	0	0;
	1	0	0	2.85	-2.85	1	100	1	5.7	1.21476968	0	0	0	0	0	0	0	0	0	0	0;
	1	0	0	7.5	-7.5	1	100	1	15	3.62049853	0	0	0	0	0	0	0	0	0	0	0;
	1	0	0	7.5	-7.5	1	100	1	15	3.62049853	0	0	0	0	0	0	0	0	0	0	0;
	1	167.2	26.66	75.5	-10.2	1.03	192	1	167.2	77.3368078	0	0	0	0	0	0	0	0	0	0	0;
	1	155.3	26.66	73.5	-9.1	1.03	159	1	155.3	72.4461235	0	0	0	0	0	0	0	0	0	0	0;
	1	0	0	12.8	-12.8	1	100	1	25.6	7.96741676	0	0	0	0	0	0	0	0	0	0	0;
	2	0	0	0.2	-0.2	1	100	0	0.4	0	0	0	0	0	0	0	0	0	0	0	0;
	2	0.8	0	0.4	-0.4	1	100	1	0.8	0	0	0	0	0	0	0	0	0	0	0	0;
	2	1.2	0	0.6	-0.6	1	100	1	1.2	0	0	0	0	0	0	0	0	0	0	0	0;
	2	0	0	4.15	-4.15	1	100	1	8.3	2.00334252	0	0	0	0	0	0	0	0	0	0	0;
	1	0	10.07	25.5	-8	1.02	48.71	1	48.7	0	0	0	0	0	0	0	0	0	0	0	0;
	1	0	10.07	25.5	-8	1.02	48.71	1	48.7	0	0	0	0	0	0	0	0	0	0	0	0;
	1	0	7.44	25.5	-8	1.02	48.71	1	48.7	0	0	0	0	0	0	0	0	0	0	0	0;
	1	48.6951886	7.44	24	-19	1.02	55	1	75.2	0	0	0	0	0	0	0	0	0	0	0	0;
	1	0.6	0	0.3	-0.3	1	100	1	0.6	0	0	0	0	0	0	0	0	0	0	0	0;
	1	0.8	0	0.4	-0.4	1	100	1	0.8	0	0	0	0	0	0	0	0	0	0	0	0;
	1	2.26	0	0	0	1.03	2	1	2.26	0	0	0	0	0	0	0	0	0	0	0	0;
	1	2.26	0	0	0	1.03	1	1	2.26	0	0	0	0	0	0	0	0	0	0	0	0;
	1	0.3	0	0.15	-0.15	1	100	1	0.3	0	0	0	0	0	0	0	0	0	0	0	0;
	1	4.6	0	1.9	0	1	3	1	4.6	0	0	0	0	0	0	0	0	0	0	0	0;
	1	4.6	0	0.6	0	1	1	1	4.6	0	0	0	0	0	0	0	0	0	0	0	0;
	1	4.6	0	0.6	0	1	1	1	4.6	0	0	0	0	0	0	0	0	0	0	0	0;
	1	11.4	0	0	0	1	8	1	11.4	0	0	0	0	0	0	0	0	0	0	0	0;
	1	11.4	0	0	0	1	4	1	11.4	0	0	0	0	0	0	0	0	0	0	0	0;
	1	11.4	0	0	0	1	4	1	11.4	0	0	0	0	0	0	0	0	0	0	0	0;
	1	1	0	0.5	-0.5	1	100	1	1	0	0	0	0	0	0	0	0	0	0	0	0;
	1	1.2	0	0.6	-0.6	1	100	1	1.2	0	0	0	0	0	0	0	0	0	0	0	0;
	1	1.6	0	0.8	-0.8	1	100	1	1.6	0	0	0	0	0	0	0	0	0	0	0	0;
	1	6.3	0	3.15	-3.15	1	100	1	6.3	0	0	0	0	0	0	0	0	0	0	0	0;
	1	9.2	5.45	2.6	0	1	5	1	9.2	0	0	0	0	0	0	0	0	0	0	0	0;
	1	9.2	5.45	2.1	0	1	4	1	9.2	0	0	0	0	0	0	0	0	0	0	0	0;
	1	9.2	5.45	2.1	0	1	4	1	9.2	0	0	0	0	0	0	0	0	0	0	0	0;
	1	3.38	0	1	0	1	1.2	1	3.38	0	0	0	0	0	0	0	0	0	0	0	0;
	1	3.38	0	1	0	1	1	1	3.38	0	0	0	0	0	0	0	0	0	0	0	0;
	1	3.8	0	1	0	1	3.8	1	3.8	0	0	0	0	0	0	0	0	0	0	0	0;
	1	3	0	0	0	1.03	1.5	1	3	0	0	0	0	0	0	0	0	0	0	0	0;
	1	3	0	0	0	1.03	1.5	1	3	0	0	0	0	0	0	0	0	0	0	0	0;
	1	0	0	0	0	1	20	1	23.05	0	0	0	0	0	0	0	0	0	0	0	0;
	1	23.05	0	0	0	1	2	1	23.05	0	0	0	0	0	0	0	0	0	0	0	0;
	1	0	-4.05	36	-12	1	105.77	1	95.2	84	0	0	0	0	0	0	0	0	0	0	0;
	1	0	-4.09	36	-12	1	105.77	1	95.2	84	0	0	0	0	0	0	0	0	0	0	0;
	1	0	-4.09	56.5	-38.5	1	105.77	1	95.2	84	0	0	0	0	0	0	0	0	0	0	0;
	1	0.8	0	0.4	-0.4	1	100	1	0.8	0.052737163	0	0	0	0	0	0	0	0	0	0	0;
	1	0.8	0	0.4	-0.4	1	100	1	0.8	0.052737163	0	0	0	0	0	0	0	0	0	0	0;
	1	0.8	0	0.4	-0.4	1	100	1	0.8	0.052737163	0	0	0	0	0	0	0	0	0	0	0;
	1	0.8	0	0.4	-0.4	1	100	1	0.8	0.052737163	0	0	0	0	0	0	0	0	0	0	0;
	1	0.8	0	0.4	-0.4	1	100	1	0.8	0.052737163	0	0	0	0	0	0	0	0	0	0	0;
	1	0.8	0	0.4	-0.4	1	100	1	0.8	0.052737163	0	0	0	0	0	0	0	0	0	0	0;
	1	0.8	0	0.4	-0.4	1	100	1	0.8	0.052737163	0	0	0	0	0	0	0	0	0	0	0;
	1	57	0	28.5	-28.5	1	100	1	57	17.7234423	0	0	0	0	0	0	0	0	0	0	0;
	1	217.6	135.5	72.4	-3.1	1.02	128	1	217.6	58.1507215	0	0	0	0	0	0	0	0	0	0	0;
	1	217.6	122.5	62	-11.1	1.02	128	1	217.6	58.4631918	0	0	0	0	0	0	0	0	0	0	0;
	1	50.0376552	-11.12	55.2	-11.33	1.04	100	1	152.8	40.1576873	0	0	0	0	0	0	0	0	0	0	0;
	1	0	-11.12	65.2	-11.1	1.04	100	1	152.8	39.8435463	0	0	0	0	0	0	0	0	0	0	0;
	1	1.6	0	0.8	-0.8	1	100	1	1.6	0.105474326	0	0	0	0	0	0	0	0	0	0	0;
	1	1.6	0	0.8	-0.8	1	100	1	1.6	0.105474326	0	0	0	0	0	0	0	0	0	0	0;
	1	1.6	0	0.8	-0.8	1	100	1	1.6	0.105474326	0	0	0	0	0	0	0	0	0	0	0;
	1	1.6	0	0.8	-0.8	1	100	1	1.6	0.105474326	0	0	0	0	0	0	0	0	0	0	0;
	1	0	0	9.65	-9.65	1	100	1	19.3	4.1131675	0	0	0	0	0	0	0	0	0	0	0;
	1	0	0	20.3	-20.3	1	100	1	40.6	9.7994827	0	0	0	0	0	0	0	0	0	0	0;
	1	0	0	1.9	-1.9	1	100	1	3.8	1.18156282	0	0	0	0	0	0	0	0	0	0	0;
	1	0	0	8.5	-8.5	1	100	1	17	3.62299728	0	0	0	0	0	0	0	0	0	0	0;
	1	0	0	19.4	-19.4	1	100	1	38.8	9.36502288	0	0	0	0	0	0	0	0	0	0	0;
	1	0	97.7	48.85	-17.75	1	128	1	218	57.3684211	0	0	0	0	0	0	0	0	0	0	0;
	1	0	93.8	46.9	-32.05	1	128	1	218	57.3684211	0	0	0	0	0	0	0	0	0	0	0;
	1	3	-1.6	2	-1.6	1	3.4	1	3	0	0	0	0	0	0	0	0	0	0	0	0;
	1	1.1	0	0.55	-0.55	1	100	1	1.1	0.072513599	0	0	0	0	0	0	0	0	0	0	0;
	1	50.1	19.7	5.6	-5.6	1.01	18.6	1	50.1	0	0	0	0	0	0	0	0	0	0	0	0;
	1	0	19.7	14.1	-14.1	1.01	46.5	1	50.1	0	0	0	0	0	0	0	0	0	0	0	0;
	1	0.5	0	0.25	-0.25	1	100	1	0.5	0	0	0	0	0	0	0	0	0	0	0	0;
	1	0.8	0	0.4	-0.4	1	100	1	0.8	0.052737163	0	0	0	0	0	0	0	0	0	0	0;
	1	0.8	0	0.4	-0.4	1	100	1	0.8	0.052737163	0	0	0	0	0	0	0	0	0	0	0;
	1	0.8	0	0.4	-0.4	1	100	1	0.8	0.052737163	0	0	0	0	0	0	0	0	0	0	0;
	1	2	1	1	1	1.02	2	1	2	0	0	0	0	0	0	0	0	0	0	0	0;
	1	2	0	1	-1	1	100	1	2	0	0	0	0	0	0	0	0	0	0	0	0;
	1	-5.8	-1.5	1.5	-1.5	1.02	5.5	1	5.8	-5.8	0	0	0	0	0	0	0	0	0	0	0;
	1	11	0	5.5	-5.5	1	100	1	11	3.42349939	0	0	0	0	0	0	0	0	0	0	0;
	1	0	0	18.6	-18.6	1	100	1	37.2	7.92797052	0	0	0	0	0	0	0	0	0	0	0;
	1	0	0	32.75	-32.75	1	100	1	65.5	15.8095103	0	0	0	0	0	0	0	0	0	0	0;
	1	90.6	0	45.3	-45.3	1	100	1	90.6	28.1971859	0	0	0	0	0	0	0	0	0	0	0;
	1	1.6	0	0.8	-0.8	1	100	1	1.6	0.105474326	0	0	0	0	0	0	0	0	0	0	0;
	1	1.6	0	0.8	-0.8	1	100	1	1.6	0.105474326	0	0	0	0	0	0	0	0	0	0	0;
	1	8	-2.63	1.5	-1.5	1	3.8	1	8	0	0	0	0	0	0	0	0	0	0	0	0;
	1	8	-2.63	1.5	-1.5	1	2	1	8	0	0	0	0	0	0	0	0	0	0	0	0;
	1	8	-2.63	1.5	-1.5	1	2	1	8	0	0	0	0	0	0	0	0	0	0	0	0;
	1	8	-2.63	1.5	-1.5	1	2	1	8	0	0	0	0	0	0	0	0	0	0	0	0;
	1	1.8	0	0.9	-0.9	1	100	1	1.8	0.560208991	0	0	0	0	0	0	0	0	0	0	0;
	1	1.8	0	0.9	-0.9	1	100	1	1.8	0.560208991	0	0	0	0	0	0	0	0	0	0	0;
	1	2.2	0	1.1	-1.1	1	100	1	2.2	0	0	0	0	0	0	0	0	0	0	0	0;
	1	0.5	0	0.25	-0.25	1	100	1	0.5	0	0	0	0	0	0	0	0	0	0	0	0;
	1	1.4	-0.59	1.1	-1.1	1.02	2	1	1.4	0	0	0	0	0	0	0	0	0	0	0	0;
	1	1.8	0	0.9	-0.9	1	100	1	1.8	0	0	0	0	0	0	0	0	0	0	0	0;
	1	9	0	4.5	-4.5	1	100	1	9	0	0	0	0	0	0	0	0	0	0	0	0;
	1	5	0	2.5	-2.5	1	100	1	5	0	0	0	0	0	0	0	0	0	0	0	0;
	1	10.2	-6.65	8	-8	1.02	11	1	10.2	0	0	0	0	0	0	0	0	0	0	0	0;
	1	2	0	1	-1	1	100	1	2	0	0	0	0	0	0	0	0	0	0	0	0;
	1	2	0	1	-1	1	100	1	2	0	0	0	0	0	0	0	0	0	0	0	0;
	1	2	0	1	-1	1	100	1	2	0	0	0	0	0	0	0	0	0	0	0	0;
	1	2	0	1	-1	1	100	1	2	0	0	0	0	0	0	0	0	0	0	0	0;
	1	7.4	-5.6	5.6	-5.6	1	9.2	1	7.4	0	0	0	0	0	0	0	0	0	0	0	0;
	1	1	0	0.5	-0.5	1	100	1	1	0	0	0	0	0	0	0	0	0	0	0	0;
	1	1	0	0.5	-0.5	1	100	1	1	0	0	0	0	0	0	0	0	0	0	0	0;
	1	2	0	1	-1	1	100	1	2	0	0	0	0	0	0	0	0	0	0	0	0;
	1	2	0	1	-1	1	100	1	2	0	0	0	0	0	0	0	0	0	0	0	0;
	1	6.7	-0.77	0.35	-0.46	1.02	8	1	6.7	0	0	0	0	0	0	0	0	0	0	0	0;
	1	0	0	0	-5.2	1.01	56	1	56	0	0	0	0	0	0	0	0	0	0	0	0;
	1	1.7	0	0.85	-0.85	1	100	1	1.7	0	0	0	0	0	0	0	0	0	0	0	0;
	1	1.7	0	0.85	-0.85	1	100	1	1.7	0	0	0	0	0	0	0	0	0	0	0	0;
	1	3.3	0	1.65	-1.65	1	100	1	3.3	0	0	0	0	0	0	0	0	0	0	0	0;
	1	1.8	0	0.9	-0.9	1	100	1	1.8	0	0	0	0	0	0	0	0	0	0	0	0;
	1	2	0	1	-1	1	100	1	2	0	0	0	0	0	0	0	0	0	0	0	0;
	1	2	0	1	-1	1	100	1	2	0	0	0	0	0	0	0	0	0	0	0	0;
	1	2	0	1	-1	1	100	1	2	0	0	0	0	0	0	0	0	0	0	0	0;
	1	2	0	1	-1	1	100	1	2	0	0	0	0	0	0	0	0	0	0	0	0;
	1	30	0.95	9.8	-14.6	1.02	33.34	1	30	0	0	0	0	0	0	0	0	0	0	0	0;
	1	1259.3	159.69	500	-91.6	1.05	1399	1	1259.3	771.089923	0	0	0	0	0	0	0	0	0	0	0;
	1	641.8	117.1	360	-57.3	1.05	755	1	641.8	305.619048	0	0	0	0	0	0	0	0	0	0	0;
	1	0	272.7	399.3	-179.2	1.05	975	1	901.8	0	0	0	0	0	0	0	0	0	0	0	0;
	1	0	0	400.9	-99.6	1.05	975	1	901.8	0	0	0	0	0	0	0	0	0	0	0	0;
	1	39.5	2.62	13.9	-13.1	1.02	43.6	1	39.5	0	0	0	0	0	0	0	0	0	0	0	0;
	1	12.5	0	6.25	-6.25	1	100	1	12.5	3.89034021	0	0	0	0	0	0	0	0	0	0	0;
	1	0	0	8.1	-8.1	1	100	1	16.2	3.45250329	0	0	0	0	0	0	0	0	0	0	0;
	1	0	0	20.6	-20.6	1	100	1	41.2	9.94430264	0	0	0	0	0	0	0	0	0	0	0;
	1	7.5	4.93	4.78	-1.39	1.03	5	1	7.5	0	0	0	0	0	0	0	0	0	0	0	0;
	1	9	0	4.5	-4.5	1	100	1	9	0	0	0	0	0	0	0	0	0	0	0	0;
	1	27	4.93	20.2	-20.2	1.03	35	1	27	0	0	0	0	0	0	0	0	0	0	0	0;
	1	9.72411343	0	45.5	-45.5	1	100	1	91	0	0	0	0	0	0	0	0	0	0	0	0;
	1	0	21.02	155.5	-8.99	1.05	211.5	1	169.2	0	0	0	0	0	0	0	0	0	0	0	0;
	1	0	21.02	152.9	-5.91	1.05	211.5	1	169.2	0	0	0	0	0	0	0	0	0	0	0	0;
	1	0	21.02	152.1	-4.47	1.05	211.5	1	169.2	0	0	0	0	0	0	0	0	0	0	0	0;
	1	0	21.02	154	-5.47	1.05	211.5	1	169.5	0	0	0	0	0	0	0	0	0	0	0	0;
	1	0	21.02	104.8	-7.86	1.05	229.7	1	204.5	0	0	0	0	0	0	0	0	0	0	0	0;
	1	0	21.02	131.6	-5.79	1.05	229.7	1	204.5	0	0	0	0	0	0	0	0	0	0	0	0;
	1	0	8.23	24.05	-7.45	1	60	1	48.8	0	0	0	0	0	0	0	0	0	0	0	0;
	1	0	8.23	19.5	-6.8	1	60	1	48.8	0	0	0	0	0	0	0	0	0	0	0	0;
	1	0	-3.2	9.4	-3.2	1.02	29.5	1	25	0	0	0	0	0	0	0	0	0	0	0	0;
	1	2	0	1	-1	1	100	1	2	0.131842908	0	0	0	0	0	0	0	0	0	0	0;
	1	0	0	17.8	-17.8	1	100	1	35.6	7.58698254	0	0	0	0	0	0	0	0	0	0	0;
	1	0	0	33.25	-33.25	1	100	1	66.5	16.0508768	0	0	0	0	0	0	0	0	0	0	0;
	1	4.9	-2.17	3.27	-2.17	1.03	5	1	4.9	0	0	0	0	0	0	0	0	0	0	0	0;
	1	8	0	0	0	1.03	1	1	8	0	0	0	0	0	0	0	0	0	0	0	0;
	1	0.3	0	0.15	-0.15	1	100	1	0.3	0	0	0	0	0	0	0	0	0	0	0	0;
	1	0.3	0	0.15	-0.15	1	100	1	0.3	0	0	0	0	0	0	0	0	0	0	0	0;
	1	0.3	0	0.15	-0.15	1	100	1	0.3	0	0	0	0	0	0	0	0	0	0	0	0;
	1	0.3	0	0.15	-0.15	1	100	1	0.3	0	0	0	0	0	0	0	0	0	0	0	0;
	1	1.8	0	0.9	-0.9	1	100	1	1.8	0	0	0	0	0	0	0	0	0	0	0	0;
	1	2.2	0	1.1	-1.1	1	100	1	2.2	0	0	0	0	0	0	0	0	0	0	0	0;
	1	3	0	1.5	-1.5	1	100	1	3	0	0	0	0	0	0	0	0	0	0	0	0;
	1	0	-5.01	17.6	-17.6	1.02	70	1	72.9	0	0	0	0	0	0	0	0	0	0	0	0;
	1	0	-5.01	2.5	-2.5	1.02	10	1	72.9	0	0	0	0	0	0	0	0	0	0	0	0;
	1	0.2	0	0.1	-0.1	1	100	1	0.2	0	0	0	0	0	0	0	0	0	0	0	0;
	1	0.5	0	0.25	-0.25	1	100	1	0.5	0	0	0	0	0	0	0	0	0	0	0	0;
	1	1.6	0	0.8	-0.8	1	100	1	1.6	0.105474326	0	0	0	0	0	0	0	0	0	0	0;
	1	2.5	-1.07	2.12	-1.07	1.03	10	1	2.5	0	0	0	0	0	0	0	0	0	0	0	0;
	1	34.7978946	0	12.1	-9.6	1.02	65.3	1	55.5	0	0	0	0	0	0	0	0	0	0	0	0;
	1	0	0	1.8	-1.8	1	100	0	3.6	0	0	0	0	0	0	0	0	0	0	0	0;
	1	0	0	7.25	-7.25	1	100	0	14.5	0	0	0	0	0	0	0	0	0	0	0	0;
	1	0	0	7.25	-7.25	1	100	0	14.5	0	0	0	0	0	0	0	0	0	0	0	0;
	1	61	0	30.5	-30.5	1	100	1	61	0	0	0	0	0	0	0	0	0	0	0	0;
	1	1.5	0	0.75	-0.75	1	100	1	1.5	0	0	0	0	0	0	0	0	0	0	0	0;
	1	1.6	0	0.8	-0.8	1	100	1	1.6	0	0	0	0	0	0	0	0	0	0	0	0;
	1	1.6	0	0.8	-0.8	1	100	1	1.6	0	0	0	0	0	0	0	0	0	0	0	0;
	1	1.6	0	0.8	-0.8	1	100	1	1.6	0	0	0	0	0	0	0	0	0	0	0	0;
	1	4	0	0	0	1.02	3	1	4	0	0	0	0	0	0	0	0	0	0	0	0;
	1	0.3	0	0.15	-0.15	1	100	1	0.3	0	0	0	0	0	0	0	0	0	0	0	0;
	1	4.5	0	0	0	1.02	2.5	1	4.5	0	0	0	0	0	0	0	0	0	0	0	0;
	1	9	0	4.5	-4.5	1	100	1	9	0	0	0	0	0	0	0	0	0	0	0	0;
	1	1.8	0	0.9	-0.9	1	100	1	1.8	0	0	0	0	0	0	0	0	0	0	0	0;
	1	12	-2.01	2.94	-2.01	1.03	18	1	12	0	0	0	0	0	0	0	0	0	0	0	0;
	1	0.5	0	0.25	-0.25	1	100	1	0.5	0	0	0	0	0	0	0	0	0	0	0	0;
	1	0.5	0	0.25	-0.25	1	100	1	0.5	0	0	0	0	0	0	0	0	0	0	0	0;
	1	0.5	0	0.25	-0.25	1	100	1	0.5	0	0	0	0	0	0	0	0	0	0	0	0;
	1	0.7	0	0.35	-0.35	1	100	1	0.7	0	0	0	0	0	0	0	0	0	0	0	0;
	1	0.7	0	0.35	-0.35	1	100	1	0.7	0	0	0	0	0	0	0	0	0	0	0	0;
	1	0.7	0	0.35	-0.35	1	100	1	0.7	0	0	0	0	0	0	0	0	0	0	0	0;
	1	0.7	0	0.35	-0.35	1	100	1	0.7	0	0	0	0	0	0	0	0	0	0	0	0;
	1	0.7	0	0.35	-0.35	1	100	1	0.7	0	0	0	0	0	0	0	0	0	0	0	0;
	1	1	0	0.5	-0.5	1	100	1	1	0	0	0	0	0	0	0	0	0	0	0	0;
	1	1	0	0.5	-0.5	1	100	1	1	0	0	0	0	0	0	0	0	0	0	0	0;
	1	5	0	2.5	-2.5	1	100	1	5	0	0	0	0	0	0	0	0	0	0	0	0;
	1	3	-0.82	1	-0.82	1.03	5	1	3	0	0	0	0	0	0	0	0	0	0	0	0;