function mpc = case_ei5k_v10_g524
%CASE_EI5K_V10_G524
%The EI 5k updated model data
%------------------------------------------------------------
%Created by:    Yujia Zhu 
%Email:         yzhu54@asu.edu
%------------------------------------------------------------
% Note: Updated MATPOWER case file with low impedance line eliminated 
%
%2/24/14  - Ray Z : Cleaned up using savecase(), from
%                   EI_5k_updated_pmax_modified.m received from Yujia Zhu
%                   2/21/14. Should be same as v4 (created by Di Shi based
%                   on the 2011Sum_2010Series_EnergyVisual Data, modified
%                   by Yujia Zhu) with low impedance lines eliminated and
%                   corresponding buses merged, and Pmin on DC lines set to zero.
%5/16/14  - Ray Z : Replaced gen data with full v5.2.4 gen data,
%                   including mpc.genfuel, mpc.gen_aux_data
%                   (see IDX_GEN_AUX for details).
%6/9/14   - Ray Z : Updated with gen dispatches from solved DC OPF of
%                   case_ei62k_v6_g524.m (case_ei62k_v6_g524_soln.m)
%                   and loads redistributed accordingly (from 6/1/14 corrected
%                   version from Yujia).

%% MATPOWER Case Format : Version 2
mpc.version = '2';

%%-----  Power Flow Data  -----%%
%% system MVA base
mpc.baseMVA = 100;

%% bus data
%	bus_i	type	Pd	Qd	Gs	Bs	area	Vm	Va	baseKV	zone	Vmax	Vmin
mpc.bus = [
	100001	1	0	0	0	0	101	1	2.96808	345	100	1.1	0.9;
	100002	2	367.646577	0	0	0	101	1	-4.08201	345	100	1.1	0.9;
	100003	2	490.613572	0	0	0	101	1	-9.65623	345	100	1.1	0.9;
	100004	1	0	0	0	0	101	1	12.01259	345	100	1.1	0.9;
	100086	1	0	0	0	0	101	1	-18.86982	345	100	1.1	0.9;
	100087	2	636.829153	0	0	0	101	1	-24.0076	345	100	1.1	0.9;
	100088	2	18.5359898	0	0	0	101	1	-23.75423	345	100	1.1	0.9;
	100089	2	658.905362	0	0	0	101	1	-27.82049	345	100	1.1	0.9;
	100090	1	0	0	0	0	101	1	-29.30462	345	100	1.1	0.9;
	100091	1	24.5578956	0	0	0	101	1	-18.85425	345	100	1.1	0.9;
	104003	2	178.875885	0	0	0	101	1	-51.5078	230	104	1.1	0.9;
	104059	1	0	0	0	0	101	1	-38.42694	345	144	1.1	0.9;
	104063	1	0	0	0	0	101	1	-38.15582	345	144	1.1	0.9;
	104079	2	0	0	0	0	101	1	-42.79872	345	104	1.1	0.9;
	104080	2	11.3681453	0	0	0	101	1	-42.60458	345	104	1.1	0.9;
	104095	2	340.452542	0	0	0	101	1	-44.00695	345	104	1.1	0.9;
	104111	2	603.363602	0	0	0	101	1	-54.30693	230	104	1.1	0.9;
	104113	1	0	0	0	0	101	1	-54.80239	230	144	1.1	0.9;
	104119	1	105.419959	0	0	0	101	1	-45.58259	345	104	1.1	0.9;
	104127	2	53.5490813	0	0	0	101	1	-46.41808	345	104	1.1	0.9;
	104135	1	0	0	0	0	101	1	-49.87492	345	144	1.1	0.9;
	104143	2	697.407132	0	0	0	101	1	-48.96117	345	104	1.1	0.9;
	104151	1	49.6360068	0	0	0	101	1	-52.45006	345	104	1.1	0.9;
	104159	1	0	0	0	0	101	1	-54.77129	345	144	1.1	0.9;
	104167	1	103.793015	0	0	0	101	1	-51.76517	345	104	1.1	0.9;
	104175	2	172.28172	0	0	0	101	1	-56.44738	345	104	1.1	0.9;
	104183	1	0	0	0	0	101	1	-57.66844	345	144	1.1	0.9;
	104191	1	0	0	0	0	101	1	-59.91851	345	144	1.1	0.9;
	104195	1	0	0	0	0	101	1	-60.94753	345	144	1.1	0.9;
	106002	1	0	0	0	0	101	1	-51.77184	230	105	1.1	0.9;
	106003	2	63.2834669	0	0	0	101	1	-51.77184	230	105	1.1	0.9;
	106004	2	0.03109934	0	0	0	101	1	-51.76341	230	105	1.1	0.9;
	106005	2	0.03087648	0	0	0	101	1	-51.76223	230	105	1.1	0.9;
	106006	2	0.03103457	0	0	0	101	1	-51.76263	230	105	1.1	0.9;
	106007	2	0.03111888	0	0	0	101	1	-51.76283	230	105	1.1	0.9;
	106008	1	0	0	0	0	101	1	-51.50683	230	105	1.1	0.9;
	106009	2	13.8519235	0	0	0	101	1	-51.43588	230	105	1.1	0.9;
	106010	2	6.49373803	0	0	0	101	1	-51.47206	230	105	1.1	0.9;
	106012	1	0	0	0	0	101	1	-56.89833	230	105	1.1	0.9;
	106013	1	0	0	0	0	101	1	-55.99832	230	105	1.1	0.9;
	106014	2	6.43602564	0	0	0	101	1	-55.51944	230	105	1.1	0.9;
	106015	2	6.43599867	0	0	0	101	1	-56.41944	230	105	1.1	0.9;
	107000	2	78.5390027	0	0	0	101	1	-57.9265	345	107	1.1	0.9;
	107010	2	204.730246	0	0	0	101	1	-60.46751	345	107	1.1	0.9;
	107020	2	78.6667696	0	0	0	101	1	-61.51489	345	107	1.1	0.9;
	107030	2	220.289286	0	0	0	101	1	-62.13637	345	107	1.1	0.9;
	107040	1	65.6812412	0	0	0	101	1	-58.88949	345	107	1.1	0.9;
	107050	1	27.4171559	0	0	0	101	1	-59.46296	345	107	1.1	0.9;
	107100	2	182.6002	0	0	0	101	1	-55.89578	230	107	1.1	0.9;
	107324	2	235.352901	0	0	0	101	1	-46.53922	115	107	1.1	0.9;
	107326	1	34.0434645	0	0	0	101	1	-83.46142	120	107	1.1	0.9;
	110756	2	471.941749	0	0	0	101	1	-62.96759	345	110	1.1	0.9;
	110757	1	184.313365	0	0	0	101	1	-63.51857	345	110	1.1	0.9;
	110758	2	458.860494	0	0	0	101	1	-63.08373	345	110	1.1	0.9;
	110759	2	179.612627	0	0	0	101	1	-63.05795	345	110	1.1	0.9;
	110766	1	406.476076	0	0	0	101	1	-63.20818	345	110	1.1	0.9;
	110770	1	0	0	0	0	101	1	-67.66537	345	110	1.1	0.9;
	110773	1	0	0	0	0	101	1	-66.44224	345	110	1.1	0.9;
	110774	2	5.70594623	0	0	0	101	1	-66.41046	345	110	1.1	0.9;
	110780	2	326.069389	0	0	0	101	1	-69.1143	345	110	1.1	0.9;
	110781	2	940.177586	0	0	0	101	1	-70.67673	345	110	1.1	0.9;
	110782	1	0	0	0	0	101	1	-71.41118	345	110	1.1	0.9;
	110783	2	26.2600688	0	0	0	101	1	-70.93329	345	110	1.1	0.9;
	110785	2	13.3669326	0	0	0	101	1	-66.12218	345	110	1.1	0.9;
	110786	1	0	0	0	0	101	1	-70.33678	345	110	1.1	0.9;
	110788	1	359.089343	0	0	0	101	1	-70.64413	345	110	1.1	0.9;
	110789	1	424.647211	0	0	0	101	1	-74.28573	230	110	1.1	0.9;
	110790	1	170.252964	0	0	0	101	1	-70.3244	345	110	1.1	0.9;
	110793	1	0	0	0	0	101	1	-70.24806	230	110	1.1	0.9;
	110794	1	0	0	0	0	101	1	-69.96489	230	110	1.1	0.9;
	110795	1	416.010282	0	0	0	101	1	-72.60772	230	110	1.1	0.9;
	110862	1	260.829237	0	0	0	101	1	-70.3208	345	110	1.1	0.9;
	111133	2	517.088544	0	0	0	101	1	-72.05639	345	110	1.1	0.9;
	111134	1	278.291069	0	0	0	101	1	-74.13226	345	110	1.1	0.9;
	111193	1	556.985941	0	0	0	101	1	-73.10338	345	110	1.1	0.9;
	113001	2	421.083727	0	0	0	101	1	-64.76183	230	111	1.1	0.9;
	113094	2	0.62800578	0	0	0	101	1	-64.53626	230	111	1.1	0.9;
	113095	1	0.63803214	0	0	0	101	1	-64.76234	230	111	1.1	0.9;
	113263	2	345.675636	0	0	0	101	1	-66.83994	345	111	1.1	0.9;
	113264	1	0	0	0	0	101	1	-65.66279	345	111	1.1	0.9;
	113265	1	455.521998	0	0	0	101	1	-63.77247	345	111	1.1	0.9;
	113266	2	260.206737	0	0	0	101	1	-67.5373	230	111	1.1	0.9;
	113950	1	334.146862	0	0	0	101	1	-58.6707	345	111	1.1	0.9;
	113951	1	0	0	0	0	101	1	-60.43213	345	111	1.1	0.9;
	113952	2	403.304209	0	0	0	101	1	-56.72421	345	111	1.1	0.9;
	113955	2	757.059715	0	0	0	101	1	-62.00083	230	111	1.1	0.9;
	114063	1	99.3322837	0	0	0	101	1	-53.984	345	111	1.1	0.9;
	114071	1	0	0	0	0	101	1	-58.61914	345	111	1.1	0.9;
	114072	1	0	0	0	0	101	1	-58.61914	345	111	1.1	0.9;
	114398	1	0	0	0	0	101	1	-62.97907	345	111	1.1	0.9;
	114476	2	1055.73525	0	0	0	101	1	-62.85465	345	111	1.1	0.9;
	114734	2	682.66483	0	0	0	101	1	-63.60804	345	111	1.1	0.9;
	114735	1	14.4180858	0	0	0	101	1	-67.39071	345	111	1.1	0.9;
	115446	2	909.678833	0	0	0	101	1	-71.30186	345	111	1.1	0.9;
	115447	1	211.503601	0	0	0	101	1	-71.14287	345	111	1.1	0.9;
	116009	1	0	0	0	0	101	1	-62.64431	345	112	1.1	0.9;
	116011	2	0.53547387	0	0	0	101	1	-62.59855	345	112	1.1	0.9;
	116013	1	0.66010459	0	0	0	101	1	-62.64437	345	112	1.1	0.9;
	116023	2	334.392886	0	0	0	101	1	-66.87709	345	112	1.1	0.9;
	116034	1	0	0	0	0	101	1	-68.05724	345	144	1.1	0.9;
	116045	2	800.997815	0	0	0	101	1	-68.82737	345	112	1.1	0.9;
	116048	2	0	0	0	0	101	1	-68.39296	345	112	1.1	0.9;
	116059	1	0	0	0	0	101	1	-68.57234	345	144	1.1	0.9;
	116070	1	0	0	0	0	101	1	-72.39933	345	144	1.1	0.9;
	117001	1	380.712648	0	0	0	101	1	-67.27358	345	114	1.1	0.9;
	117002	2	14.0880415	0	0	0	101	1	-66.3887	345	114	1.1	0.9;
	117301	2	1250.41102	0	0	0	101	1	-69.52509	345	114	1.1	0.9;
	118089	1	0	0	0	0	101	1	-65.96931	230	144	1.1	0.9;
	118091	1	0	0	0	0	101	1	-67.4426	345	144	1.1	0.9;
	118092	1	0	0	0	0	101	1	-69.16984	345	144	1.1	0.9;
	118094	1	0	0	0	0	101	1	-61.75748	345	144	1.1	0.9;
	118096	1	0	0	0	0	101	1	-68.81765	345	144	1.1	0.9;
	118097	1	0	0	0	0	101	1	-71.54913	345	144	1.1	0.9;
	118098	1	0	0	0	0	101	1	-67.40082	345	144	1.1	0.9;
	118099	1	0	0	0	0	101	1	-66.40498	345	144	1.1	0.9;
	118122	1	0	0	0	0	101	1	-71.22876	345	144	1.1	0.9;
	119025	1	0	0	0	0	101	1	-67.0303	345	144	1.1	0.9;
	119038	2	156.233213	0	0	0	101	1	-67.51341	345	116	1.1	0.9;
	119051	2	18.1347663	0	0	0	101	1	-67.51354	345	116	1.1	0.9;
	119064	2	189.487183	0	0	0	101	1	-74.53529	345	116	1.1	0.9;
	119077	2	656.085504	0	0	0	101	1	-78.01469	345	116	1.1	0.9;
	119090	1	0	0	0	0	101	1	-77.78817	345	116	1.1	0.9;
	119103	2	247.571463	0	0	0	101	1	-76.63506	345	116	1.1	0.9;
	119116	2	659.085345	0	0	0	101	1	-78.90363	345	116	1.1	0.9;
	119129	1	0	0	0	0	101	1	-82.25825	345	116	1.1	0.9;
	119142	1	0	0	0	0	101	1	-86.50181	345	116	1.1	0.9;
	119155	1	13.4900662	0	0	0	101	1	-86.51842	345	116	1.1	0.9;
	119168	1	0	0	0	0	101	1	-85.56588	345	116	1.1	0.9;
	119181	2	585.970677	0	0	0	101	1	-79.5186	345	116	1.1	0.9;
	119194	2	89.5919747	0	0	0	101	1	-75.74473	345	116	1.1	0.9;
	119207	1	0	0	0	0	101	1	-83.54706	345	116	1.1	0.9;
	119209	2	524.926452	0	0	0	101	1	-83.57013	345	116	1.1	0.9;
	119220	1	0	0	0	0	101	1	-87.15671	345	116	1.1	0.9;
	119233	2	959.830593	0	0	0	101	1	-89.13905	345	116	1.1	0.9;
	119246	2	470.392619	0	0	0	101	1	-90.85956	345	116	1.1	0.9;
	119259	1	0	0	0	0	101	1	-91.85367	345	116	1.1	0.9;
	119272	1	0	0	0	0	101	1	-91.61639	345	144	1.1	0.9;
	119285	2	497.989121	0	0	0	101	1	-93.06321	345	116	1.1	0.9;
	119311	1	0	0	0	0	101	1	-93.0321	345	116	1.1	0.9;
	119324	1	0	0	0	0	101	1	-92.78633	345	116	1.1	0.9;
	119337	1	0	0	0	0	101	1	-92.58308	345	116	1.1	0.9;
	119350	4	0	0	0	0	101	1	0	345	116	1.1	0.9;
	119376	1	0	0	0	0	101	1	-89.28727	345	144	1.1	0.9;
	119389	2	584.810316	0	0	0	101	1	-90.97432	345	116	1.1	0.9;
	119402	1	0	0	0	0	101	1	-91.07318	345	144	1.1	0.9;
	119415	1	0	0	0	0	101	1	-91.07318	345	144	1.1	0.9;
	119480	1	445.692103	0	0	0	101	1	-92.40161	345	116	1.1	0.9;
	123626	2	676.100674	0	0	0	101	1	-91.31819	345	117	1.1	0.9;
	123636	2	557.896435	0	0	0	101	1	-89.84858	345	117	1.1	0.9;
	125000	2	180.675252	0	0	0	102	1	-82.86721	345	154	1.1	0.9;
	125001	2	208.416752	0	0	0	102	1	-89.1514	345	154	1.1	0.9;
	125002	2	51.4919847	0	0	0	102	1	-88.42137	345	154	1.1	0.9;
	126250	1	0	0	0	0	102	1	-69.75962	500	176	1.1	0.9;
	126260	2	20.597041	0	0	0	102	1	-97.09742	345	176	1.1	0.9;
	126261	2	235.217248	0	0	0	102	1	-97.03218	345	176	1.1	0.9;
	126262	2	125.461701	0	0	0	102	1	-98.21289	345	167	1.1	0.9;
	126263	1	0	0	0	0	102	1	-98.69585	345	167	1.1	0.9;
	126265	2	232.505962	0	0	0	102	1	-116.77196	345	159	1.1	0.9;
	126267	1	194.417279	0	0	0	102	1	-103.1477	345	169	1.1	0.9;
	126268	1	190.768579	0	0	0	102	1	-103.08892	345	169	1.1	0.9;
	126269	1	190.803885	0	0	0	102	1	-103.0995	345	169	1.1	0.9;
	126270	1	197.451194	0	0	0	102	1	-103.10717	345	169	1.1	0.9;
	126272	1	259.630239	0	0	0	102	1	-117.90603	345	159	1.1	0.9;
	126273	1	259.011213	0	0	0	102	1	-117.9068	345	159	1.1	0.9;
	126274	2	578.492122	0	0	0	102	1	-117.89225	345	159	1.1	0.9;
	126275	2	444.066721	0	0	0	102	1	-117.91423	345	159	1.1	0.9;
	126278	1	0	0	0	0	102	1	-87.46235	345	159	1.1	0.9;
	126279	1	0	0	0	0	102	1	-87.85508	345	159	1.1	0.9;
	126280	2	2069.86707	0	0	0	102	1	-117.85162	345	159	1.1	0.9;
	126281	2	659.999403	0	0	0	102	1	-91.8584	345	167	1.1	0.9;
	126282	2	887.167115	0	0	0	102	1	-116.97792	345	159	1.1	0.9;
	126283	1	0	0	0	0	102	1	-116.97874	345	159	1.1	0.9;
	126284	1	0	0	0	0	102	1	-81.34484	345	159	1.1	0.9;
	126285	1	0	0	0	0	102	1	-116.83189	345	159	1.1	0.9;
	126287	2	1864.85948	0	0	0	102	1	-117.65975	345	159	1.1	0.9;
	126288	2	33.9853582	0	0	0	102	1	-98.09597	345	167	1.1	0.9;
	126290	1	0	0	0	0	102	1	-97.4973	345	176	1.1	0.9;
	126291	1	162.33093	0	0	0	102	1	-100.6308	345	167	1.1	0.9;
	126292	1	40.5302442	0	0	0	102	1	-100.70892	345	169	1.1	0.9;
	126293	1	40.5317173	0	0	0	102	1	-100.88197	345	169	1.1	0.9;
	126294	2	189.144669	0	0	0	102	1	-90.86314	345	176	1.1	0.9;
	126295	2	800.12384	0	0	0	102	1	-117.4623	345	159	1.1	0.9;
	126296	1	0	0	0	0	102	1	-71.81432	345	176	1.1	0.9;
	126297	2	569.598285	0	0	0	102	1	-97.64485	345	176	1.1	0.9;
	126298	1	362.244051	0	0	0	102	1	-105.13289	345	169	1.1	0.9;
	126301	1	293.06622	0	0	0	102	1	-105.6218	345	159	1.1	0.9;
	126304	1	1153.04596	0	0	0	102	1	-117.88826	345	159	1.1	0.9;
	126305	1	0	0	0	0	102	1	-96.63686	345	167	1.1	0.9;
	126306	1	0	0	0	0	102	1	-97.89358	345	167	1.1	0.9;
	126320	1	0	0	0	0	102	1	-81.12719	230	159	1.1	0.9;
	126321	1	0	0	0	0	102	1	-78.17363	230	159	1.1	0.9;
	126343	2	3134.28649	0	0	0	102	1	-105.23636	345	169	1.1	0.9;
	126517	1	0	0	0	0	102	1	-116.58182	345	169	1.1	0.9;
	126518	1	0	0	0	0	102	1	-116.58182	345	169	1.1	0.9;
	126600	1	0	0	0	0	102	1	-116.351	345	169	1.1	0.9;
	126601	1	0	0	0	0	102	1	-116.27235	345	169	1.1	0.9;
	126641	1	283.646805	0	0	0	102	1	-117.20017	345	159	1.1	0.9;
	126847	1	-107.409261	0	0	0	102	1	-105.13884	345	159	1.1	0.9;
	128252	1	0	0	0	0	102	1	-117.66014	345	159	1.1	0.9;
	128822	1	380.346213	0	0	0	102	1	-108.69083	345	156	1.1	0.9;
	128823	1	377.173528	0	0	0	102	1	-108.62969	345	156	1.1	0.9;
	128824	1	0	0	0	0	102	1	-106.96933	345	156	1.1	0.9;
	128830	1	0	0	0	0	102	1	-106.17825	345	156	1.1	0.9;
	128835	2	962.539777	0	0	0	102	1	-106.89409	345	156	1.1	0.9;
	128842	1	0	0	0	0	102	1	-109.12051	345	156	1.1	0.9;
	128847	2	4262.12655	0	0	0	102	1	-109.31303	345	156	1.1	0.9;
	130750	2	180.75501	0	0	0	102	1	-79.22819	345	151	1.1	0.9;
	130751	2	0	0	0	0	102	1	-46.77191	230	150	1.1	0.9;
	130753	2	119.322349	0	0	0	102	1	-64.47711	345	151	1.1	0.9;
	130754	2	33.9850023	0	0	0	102	1	-27.15443	345	149	1.1	0.9;
	130755	2	349.480963	0	0	0	102	1	-53.52185	345	150	1.1	0.9;
	130756	2	195.669097	0	0	0	102	1	-24.18109	345	149	1.1	0.9;
	130757	1	0	0	0	0	102	1	-44.30322	345	150	1.1	0.9;
	130758	1	114.232945	0	0	0	102	1	-96.70477	345	174	1.1	0.9;
	130759	2	118.815261	0	0	0	102	1	-97.94493	345	174	1.1	0.9;
	130761	1	0	0	0	0	102	1	-47.53876	230	150	1.1	0.9;
	130763	1	219.092956	0	0	0	102	1	-53.9922	230	150	1.1	0.9;
	130764	2	176.051027	0	0	0	102	1	-44.74701	230	150	1.1	0.9;
	130765	1	115.170822	0	0	0	102	1	-55.86293	230	150	1.1	0.9;
	130766	2	168.749105	0	0	0	102	1	-28.1385	230	149	1.1	0.9;
	130767	1	0	0	0	0	102	1	-31.33061	230	149	1.1	0.9;
	130768	1	0	0	0	0	102	1	-54.05237	230	150	1.1	0.9;
	130770	2	0	0	0	0	102	1	-34.17089	230	150	1.1	0.9;
	130772	1	6.78200529	0	0	0	102	1	-54.79337	230	150	1.1	0.9;
	131122	1	0	0	0	0	102	1	-36.6504	230	150	1.1	0.9;
	131123	2	0	0	0	0	102	1	-36.60518	230	150	1.1	0.9;
	131154	2	86.7332385	0	0	0	102	1	-51.20947	230	150	1.1	0.9;
	131157	2	440.790266	0	0	0	102	1	-50.75428	345	150	1.1	0.9;
	135250	2	218.882001	0	0	0	102	1	-25.82974	230	145	1.1	0.9;
	135251	1	0	0	0	0	102	1	-25.44527	230	145	1.1	0.9;
	135303	1	57.7959536	0	0	0	102	1	-26.82482	230	145	1.1	0.9;
	135304	1	58.7043742	0	0	0	102	1	-26.81143	230	145	1.1	0.9;
	135305	1	58.8357603	0	0	0	102	1	-27.07734	230	145	1.1	0.9;
	135306	1	0	0	0	0	102	1	-27.00415	230	145	1.1	0.9;
	135410	1	33.0916983	0	0	0	102	1	-26.97988	230	145	1.1	0.9;
	135411	1	32.5834801	0	0	0	102	1	-29.81976	230	145	1.1	0.9;
	135412	1	32.4248285	0	0	0	102	1	-29.81952	230	145	1.1	0.9;
	135413	2	756.236689	0	0	0	102	1	-29.76977	230	145	1.1	0.9;
	135414	2	14.4120218	0	0	0	102	1	-26.8894	230	145	1.1	0.9;
	135415	1	-38.4644056	0	0	0	102	1	-25.37564	230	145	1.1	0.9;
	135416	1	0.16995628	0	0	0	102	1	-29.79257	230	145	1.1	0.9;
	135417	1	0.16999507	0	0	0	102	1	-29.79246	230	145	1.1	0.9;
	135418	1	12.0275384	0	0	0	102	1	-28.28474	230	145	1.1	0.9;
	135419	1	12.0404713	0	0	0	102	1	-28.30827	230	145	1.1	0.9;
	136150	2	536.246551	0	0	0	102	1	-41.36384	345	146	1.1	0.9;
	136151	2	311.386128	0	0	0	102	1	-43.80416	345	146	1.1	0.9;
	136152	2	286.633507	0	0	0	102	1	-42.78471	345	146	1.1	0.9;
	136153	1	0	0	0	0	102	1	-44.27905	345	146	1.1	0.9;
	136154	2	262.327497	0	0	0	102	1	-38.23161	345	146	1.1	0.9;
	136155	2	69.8549909	0	0	0	102	1	-35.95061	345	146	1.1	0.9;
	136156	1	0	0	0	0	102	1	-37.82542	345	146	1.1	0.9;
	136157	2	16.478015	0	0	0	102	1	-35.90398	345	146	1.1	0.9;
	136158	2	22.4500016	0	0	0	102	1	-35.9012	345	146	1.1	0.9;
	137200	2	429.948366	0	0	0	102	1	-49.352	345	147	1.1	0.9;
	137210	1	174.271857	0	0	0	102	1	-52.65229	230	147	1.1	0.9;
	137450	1	0	0	0	0	102	1	-68.75623	345	148	1.1	0.9;
	137451	1	0	0	0	0	102	1	-76.05851	345	148	1.1	0.9;
	137452	1	171.280777	0	0	0	102	1	-69.46806	345	148	1.1	0.9;
	137453	2	217.738867	0	0	0	102	1	-69.46293	345	148	1.1	0.9;
	137454	2	792.477275	0	0	0	102	1	-69.37106	345	148	1.1	0.9;
	137455	2	0	0	0	0	102	1	-76.11474	345	148	1.1	0.9;
	137558	1	0	0	0	0	102	1	-69.37106	345	148	1.1	0.9;
	137730	2	1027.25671	0	0	0	102	1	-67.91724	230	148	1.1	0.9;
	137927	2	-0.08000013	0	0	0	102	1	-46.15621	230	147	1.1	0.9;
	137928	1	0	0	0	0	102	1	-46.49455	230	147	1.1	0.9;
	146750	1	290.484301	0	0	0	102	1	-97.20213	345	155	1.1	0.9;
	146752	1	142.142062	0	0	0	102	1	-98.50272	345	155	1.1	0.9;
	146753	1	0	0	0	0	102	1	-98.45819	345	155	1.1	0.9;
	146754	2	246.266811	0	0	0	102	1	-87.38548	345	155	1.1	0.9;
	147827	1	0	0	0	0	102	1	-45.7953	765	162	1.1	0.9;
	147828	1	0	0	0	0	102	1	-35.83516	765	158	1.1	0.9;
	147829	1	0	0	0	0	102	1	-117.90324	345	170	1.1	0.9;
	147830	2	29.660002	0	0	0	102	1	-35.91524	345	161	1.1	0.9;
	147831	2	0	0	0	0	102	1	-67.96065	345	164	1.1	0.9;
	147832	2	34.4998308	0	0	0	102	1	-98.57679	345	166	1.1	0.9;
	147833	1	0	0	0	0	102	1	-49.21973	345	162	1.1	0.9;
	147834	1	0	0	0	0	102	1	-26.92313	345	157	1.1	0.9;
	147835	1	0	0	0	0	102	1	-45.28821	230	162	1.1	0.9;
	147837	1	0	0	0	0	102	1	-35.08959	230	158	1.1	0.9;
	147838	1	0	0	0	0	102	1	-35.08959	230	158	1.1	0.9;
	147839	2	0	0	0	0	102	1	-34.70862	230	158	1.1	0.9;
	147840	2	336.683017	0	0	0	102	1	-34.7176	230	158	1.1	0.9;
	147841	2	1399.71449	0	0	0	102	1	-24.93758	230	157	1.1	0.9;
	147843	1	-0.28138798	0	0	0	102	1	-35.00894	230	158	1.1	0.9;
	147844	2	106.325675	0	0	0	102	1	-34.91303	230	158	1.1	0.9;
	147846	2	265.913719	0	0	0	102	1	-34.98782	230	158	1.1	0.9;
	147857	1	0	0	0	0	102	1	-105.84728	345	171	1.1	0.9;
	147859	1	0	0	0	0	102	1	-35.00312	230	158	1.1	0.9;
	147970	2	0	0	0	0	102	1	-34.78569	230	158	1.1	0.9;
	147980	1	0	0	0	0	102	1	-34.99359	230	158	1.1	0.9;
	148707	1	0	0	0	0	102	1	-117.90324	345	170	1.1	0.9;
	149000	2	746.282023	0	0	0	102	1	-38.61848	345	153	1.1	0.9;
	149001	2	1064.44646	0	0	0	102	1	-39.82767	345	153	1.1	0.9;
	152000	2	1539.44327	0	0	0	103	1	-34.75194	500	1102	1.1	0.9;
	152001	2	66.6783157	0	0	0	103	1	-24.04021	500	1102	1.1	0.9;
	152002	2	256.21404	0	0	0	103	1	-28.63286	500	1102	1.1	0.9;
	152010	1	0	0	0	0	103	1	-36.99151	500	1102	1.1	0.9;
	152011	1	0	0	0	0	103	1	-37.00942	500	1102	1.1	0.9;
	153000	2	1194.29314	0	0	0	103	1	-37.03714	500	1103	1.1	0.9;
	153010	1	0	0	0	0	103	1	-34.78196	500	1102	1.1	0.9;
	153011	1	0	0	0	0	103	1	-34.79171	500	1102	1.1	0.9;
	154000	2	1065.25866	0	0	0	103	1	-32.61197	500	1104	1.1	0.9;
	155000	2	377.955044	0	0	0	103	1	-33.36441	500	1105	1.1	0.9;
	155071	2	571.339398	0	0	0	103	1	-22.25304	230	1105	1.1	0.9;
	155072	1	183.462097	0	0	0	103	1	-34.75512	230	1105	1.1	0.9;
	155073	1	0	0	0	0	103	1	-34.77034	230	1105	1.1	0.9;
	156001	2	5600.40028	0	0	0	103	1	-35.70488	500	1106	1.1	0.9;
	156005	2	226.812866	0	0	0	103	1	-32.93085	500	1106	1.1	0.9;
	156006	1	600.615299	0	0	0	103	1	-36.5188	500	1106	1.1	0.9;
	156011	1	601.961953	0	0	0	103	1	-36.5197	500	1106	1.1	0.9;
	156014	2	3219.54418	0	0	0	103	1	-36.62908	500	1106	1.1	0.9;
	157050	2	2364.93212	0	0	0	103	1	-26.94328	345	1107	1.1	0.9;
	157051	1	-245.431789	0	0	0	103	1	-26.94326	345	1107	1.1	0.9;
	157062	1	-166.805237	0	0	0	103	1	-27.75196	230	1107	1.1	0.9;
	157063	1	-224.88735	0	0	0	103	1	-25.85275	230	1107	1.1	0.9;
	158000	1	0	0	0	0	103	1	-35.91318	500	1108	1.1	0.9;
	158001	1	0	0	0	0	103	1	-35.63405	500	1108	1.1	0.9;
	158002	1	0	0	0	0	103	1	-33.83659	500	1108	1.1	0.9;
	158003	1	784.746273	0	0	0	103	1	-36.51179	500	1108	1.1	0.9;
	158004	1	756.785326	0	0	0	103	1	-36.49228	500	1108	1.1	0.9;
	158005	1	374.248488	0	0	0	103	1	-33.68796	500	1108	1.1	0.9;
	158006	1	343.987842	0	0	0	103	1	-33.69833	500	1108	1.1	0.9;
	158007	2	1217.71627	0	0	0	103	1	-31.50158	500	1108	1.1	0.9;
	159000	2	1003.39893	0	0	0	103	1	-19.43802	500	1109	1.1	0.9;
	159001	2	255.402821	0	0	0	103	1	-18.99328	500	1109	1.1	0.9;
	159002	1	0	0	0	0	103	1	-19.64632	500	1109	1.1	0.9;
	159003	1	0	0	0	0	103	1	-19.25323	500	1109	1.1	0.9;
	159004	1	0	0	0	0	103	1	-19.23516	500	1109	1.1	0.9;
	159005	1	0	0	0	0	103	1	-19.51525	500	1109	1.1	0.9;
	159006	1	0	0	0	0	103	1	-19.08404	500	1109	1.1	0.9;
	159007	1	0	0	0	0	103	1	-20.94167	500	1109	1.1	0.9;
	159008	1	0	0	0	0	103	1	-20.74414	500	1109	1.1	0.9;
	159009	1	0	0	0	0	103	1	-19.98343	500	1109	1.1	0.9;
	159010	1	0	0	0	0	103	1	-19.60266	500	1109	1.1	0.9;
	160000	2	105.906095	0	0	0	103	1	-25.16233	500	1110	1.1	0.9;
	160050	1	-41.4510848	0	0	0	103	1	-26.40376	345	1110	1.1	0.9;
	160057	2	362.491086	0	0	0	103	1	-22.24831	230	1110	1.1	0.9;
	160058	1	0	0	0	0	103	1	-30.30794	230	1110	1.1	0.9;
	180301	1	0	0	0	0	104	1	-57.47948	315	1144	1.1	0.9;
	180302	2	893.548081	0	0	0	104	1	-59.07418	315	1144	1.1	0.9;
	180303	1	0	0	0	0	104	1	-44.53847	315	1142	1.1	0.9;
	180304	1	0	0	0	0	104	1	-44.24925	315	1142	1.1	0.9;
	180305	1	0	0	0	0	104	1	-24.14633	315	1154	1.1	0.9;
	180306	1	0	0	0	0	104	1	-21.11741	315	1154	1.1	0.9;
	180308	1	0	0	0	0	104	1	-57.99128	315	1144	1.1	0.9;
	180309	1	492.198657	0	0	0	104	1	-23.31925	315	1154	1.1	0.9;
	180310	1	0	0	0	0	104	1	-14.9768	315	1154	1.1	0.9;
	180313	1	2.66299857	0	0	0	104	1	-32.79993	315	1163	1.1	0.9;
	180315	1	0	0	0	0	104	1	-59.29342	315	1155	1.1	0.9;
	180317	1	0	0	0	0	104	1	-47.42047	315	1142	1.1	0.9;
	180319	1	0	0	0	0	104	1	-58.45275	315	1144	1.1	0.9;
	180320	1	0	0	0	0	104	1	-13.02333	315	1168	1.1	0.9;
	180324	1	0	0	0	0	104	1	-13.58826	315	1168	1.1	0.9;
	180326	2	198.729452	0	0	0	104	1	-68.18758	315	1143	1.1	0.9;
	180327	2	0	0	0	0	104	1	-15.78525	315	1154	1.1	0.9;
	180341	2	0	0	0	0	104	1	-2.26361	315	1154	1.1	0.9;
	180342	2	0	0	0	0	104	1	-6.37024	315	1154	1.1	0.9;
	180343	4	0	0	0	0	104	1	0	315	1154	1.1	0.9;
	180349	2	0	0	0	0	104	1	-11.28989	315	1168	1.1	0.9;
	180350	1	0	0	0	0	104	1	-57.99128	315	1144	1.1	0.9;
	180361	2	16.4580056	0	0	0	104	1	-8.6133	315	1168	1.1	0.9;
	180365	2	0	0	0	0	104	1	-2.23063	315	1168	1.1	0.9;
	180366	2	0	0	0	0	104	1	3.69048	315	1168	1.1	0.9;
	180367	2	0	0	0	0	104	1	6.09373	315	1168	1.1	0.9;
	180375	2	0	0	0	0	104	1	-20.7891	315	1168	1.1	0.9;
	180376	2	0	0	0	0	104	1	-17.50773	315	1154	1.1	0.9;
	180380	1	0	0	0	0	104	1	-23.44757	315	1168	1.1	0.9;
	180405	1	0	0	0	0	104	1	-22.84427	315	1154	1.1	0.9;
	180406	1	0	0	0	0	104	1	-20.81708	315	1154	1.1	0.9;
	180419	1	0	0	0	0	104	1	-58.9251	315	1153	1.1	0.9;
	180425	1	567.441271	0	0	0	104	1	-58.31539	315	1153	1.1	0.9;
	180427	1	405.217937	0	0	0	104	1	-59.09392	315	1144	1.1	0.9;
	180428	1	545.177992	0	0	0	104	1	-58.32174	315	1144	1.1	0.9;
	180430	2	1073.08304	0	0	0	104	1	-60.42791	315	1144	1.1	0.9;
	180431	2	671.850782	0	0	0	104	1	-60.54142	315	1144	1.1	0.9;
	180432	1	471.170466	0	0	0	104	1	-58.95326	315	1144	1.1	0.9;
	180433	2	0	0	0	0	104	1	-26.73005	315	1154	1.1	0.9;
	180434	2	0	0	0	0	104	1	-24.56153	315	1154	1.1	0.9;
	180437	1	335.174002	0	0	0	104	1	-44.52955	315	1142	1.1	0.9;
	180438	1	177.67455	0	0	0	104	1	-58.91669	315	1144	1.1	0.9;
	180441	4	0	0	0	0	104	1	0	315	1154	1.1	0.9;
	180451	1	119.806244	0	0	0	104	1	-39.86416	315	1142	1.1	0.9;
	180452	1	60.0247493	0	0	0	104	1	-38.87928	315	1142	1.1	0.9;
	180453	1	0	0	0	0	104	1	-38.81522	315	1142	1.1	0.9;
	180454	1	0	0	0	0	104	1	-39.76543	315	1142	1.1	0.9;
	180457	1	139.022986	0	0	0	104	1	-48.41142	315	1142	1.1	0.9;
	180458	2	438.852105	0	0	0	104	1	-68.20617	315	1143	1.1	0.9;
	180460	1	-12.2320012	0	0	0	104	1	-31.5128	315	1154	1.1	0.9;
	180462	1	444.213992	0	0	0	104	1	-61.52967	315	1155	1.1	0.9;
	180463	1	0	0	0	0	104	1	-58.77343	315	1144	1.1	0.9;
	180465	1	0	0	0	0	104	1	-2.50748	315	1168	1.1	0.9;
	180472	1	237.325987	0	0	0	104	1	-47.01373	315	1140	1.1	0.9;
	180473	1	0	0	0	0	104	1	-47.12989	315	1140	1.1	0.9;
	180474	1	-2.54526278	0	0	0	104	1	-48.74971	315	1140	1.1	0.9;
	180475	1	108.219443	0	0	0	104	1	-59.03916	315	1153	1.1	0.9;
	180476	2	335.427576	0	0	0	104	1	-59.04151	315	1153	1.1	0.9;
	180477	2	86.2550009	0	0	0	104	1	-16.9832	315	1154	1.1	0.9;
	180480	1	404.730995	0	0	0	104	1	-60.61289	315	1155	1.1	0.9;
	180483	2	380.764117	0	0	0	104	1	-58.58533	315	1153	1.1	0.9;
	180485	1	6.08403077	0	0	0	104	1	-58.75499	315	1176	1.1	0.9;
	180488	1	0	0	0	0	104	1	-51.04002	315	1141	1.1	0.9;
	180490	1	0	0	0	0	104	1	-49.23	315	1140	1.1	0.9;
	180491	1	0	0	0	0	104	1	-49.23	315	1140	1.1	0.9;
	180492	1	0	0	0	0	104	1	-49.35007	315	1140	1.1	0.9;
	180493	1	0	0	0	0	104	1	-49.35007	315	1140	1.1	0.9;
	180494	1	0	0	0	0	104	1	-45.50312	315	1140	1.1	0.9;
	180495	1	0	0	0	0	104	1	-45.50312	315	1140	1.1	0.9;
	180496	1	0	0	0	0	104	1	-45.47338	315	1140	1.1	0.9;
	180497	1	0	0	0	0	104	1	-45.47338	315	1140	1.1	0.9;
	180500	2	0	0	0	0	104	1	-23.99682	315	1154	1.1	0.9;
	180501	2	0	0	0	0	104	1	-23.86547	315	1154	1.1	0.9;
	180502	4	0	0	0	0	104	1	0	315	1154	1.1	0.9;
	180503	2	0	0	0	0	104	1	-23.86423	315	1154	1.1	0.9;
	180519	1	0	0	0	0	104	1	-58.9251	315	1153	1.1	0.9;
	180526	1	193.877049	0	0	0	104	1	-22.76039	220	1149	1.1	0.9;
	180527	4	0	0	0	0	104	1	0	315	1154	1.1	0.9;
	180528	2	51.3030439	0	0	0	104	1	-36.64093	315	1156	1.1	0.9;
	180530	2	543.017956	0	0	0	104	1	-38.97391	315	1156	1.1	0.9;
	180534	2	0	0	0	0	104	1	-19.25414	315	1154	1.1	0.9;
	180535	2	0	0	0	0	104	1	-23.75251	315	1154	1.1	0.9;
	180536	2	0	0	0	0	104	1	-21.15378	315	1154	1.1	0.9;
	180537	2	0	0	0	0	104	1	-19.82536	315	1154	1.1	0.9;
	180538	2	0	0	0	0	104	1	-20.38305	315	1154	1.1	0.9;
	180540	2	0	0	0	0	104	1	-19.45527	315	1154	1.1	0.9;
	180541	4	0	0	0	0	104	1	0	315	1154	1.1	0.9;
	180551	1	38.1150709	0	0	0	104	1	-42.8568	315	1142	1.1	0.9;
	180552	2	60.1429298	0	0	0	104	1	-43.10125	315	1142	1.1	0.9;
	180575	1	0	0	0	0	104	1	-50.49928	315	1152	1.1	0.9;
	180576	1	52.0753242	0	0	0	104	1	-66.09274	315	1143	1.1	0.9;
	180604	1	0	0	0	0	104	1	-43.51944	345	1142	1.1	0.9;
	180626	2	0	0	0	0	104	1	-25.12825	345	1147	1.1	0.9;
	180632	2	1837.0915	0	0	0	104	1	-34.87257	345	1147	1.1	0.9;
	180643	2	948.830981	0	0	0	104	1	-24.45769	315	1154	1.1	0.9;
	180675	1	0	0	0	0	104	1	31.83605	345	1152	1.1	0.9;
	180676	1	52.0752351	0	0	0	104	1	-66.09274	315	1143	1.1	0.9;
	180701	1	0	0	0	0	104	1	-54.79754	735	1160	1.1	0.9;
	180702	1	0	0	0	0	104	1	-54.28869	735	1161	1.1	0.9;
	180703	1	0	0	0	0	104	1	-43.28593	735	1160	1.1	0.9;
	180704	1	0	0	0	0	104	1	-42.55618	735	1159	1.1	0.9;
	180705	1	0	0	0	0	104	1	-28.36014	735	1158	1.1	0.9;
	180706	1	0	0	0	0	104	1	-26.29987	735	1158	1.1	0.9;
	180707	1	0	0	0	0	104	1	-49.75134	735	1160	1.1	0.9;
	180708	1	0	0	0	0	104	1	-55.2464	735	1160	1.1	0.9;
	180709	2	559.966331	0	0	0	104	1	-22.94096	735	1158	1.1	0.9;
	180710	1	0	0	0	0	104	1	-14.76886	735	1158	1.1	0.9;
	180713	1	0	0	0	0	104	1	-31.68117	735	1162	1.1	0.9;
	180714	1	3.45598968	0	0	0	104	1	-40.75717	735	1162	1.1	0.9;
	180715	1	0	0	0	0	104	1	-54.68576	735	1159	1.1	0.9;
	180717	1	0	0	0	0	104	1	-42.87103	735	1159	1.1	0.9;
	180718	2	638.20104	0	0	0	104	1	-34.79281	735	1159	1.1	0.9;
	180719	1	0	0	0	0	104	1	-56.42477	735	1160	1.1	0.9;
	180720	1	0	0	0	0	104	1	-14.90909	735	1162	1.1	0.9;
	180722	2	0	0	0	0	104	1	-17.35893	735	1162	1.1	0.9;
	180723	1	0	0	0	0	104	1	-18.5238	735	1162	1.1	0.9;
	180724	2	0	0	0	0	104	1	-16.09479	735	1162	1.1	0.9;
	180730	1	0	0	0	0	104	1	-53.16685	735	1160	1.1	0.9;
	180731	1	0	0	0	0	104	1	-33.63085	735	1162	1.1	0.9;
	180749	2	6.72094791	0	0	0	104	1	-14.46889	735	1162	1.1	0.9;
	180755	1	0	0	0	0	104	1	-51.25708	735	1160	1.1	0.9;
	180760	1	0	0	0	0	104	1	-7.00007	735	1157	1.1	0.9;
	180770	1	217.665897	0	0	0	104	1	-50.94136	735	1162	1.1	0.9;
	180780	1	4.90100973	0	0	0	104	1	-24.42869	735	1162	1.1	0.9;
	180782	1	0	0	0	0	104	1	-24.50816	735	1162	1.1	0.9;
	180783	2	63.1349953	0	0	0	104	1	-30.28465	735	1162	1.1	0.9;
	180784	1	232.928381	0	0	0	104	1	-53.84734	735	1160	1.1	0.9;
	180790	1	0	0	0	0	104	1	-46.82588	735	1160	1.1	0.9;
	180803	1	0	0	0	0	104	1	-44.53847	315	1160	1.1	0.9;
	180804	1	0	0	0	0	104	1	-42.55618	735	1159	1.1	0.9;
	180814	1	0	0	0	0	104	1	-40.75717	735	1162	1.1	0.9;
	180819	1	-164.199925	0	0	0	104	1	-32.24238	765	1150	1.1	0.9;
	180831	1	0	0	0	0	104	1	-33.63085	735	1162	1.1	0.9;
	180880	1	0	0	0	0	104	1	-24.42869	735	1162	1.1	0.9;
	180882	1	0	0	0	0	104	1	-24.50816	735	1162	1.1	0.9;
	180883	1	0	0	0	0	104	1	-30.28465	735	1162	1.1	0.9;
	181020	1	0	0	0	0	104	1	-12.88133	315	1168	1.1	0.9;
	181319	2	115.54589	0	0	0	104	1	-26.12393	120	1153	1.1	0.9;
	181419	2	48.6540335	0	0	0	104	1	-26.11496	120	1153	1.1	0.9;
	182001	1	0	0	0	0	104	1	-57.17277	230	1153	1.1	0.9;
	182002	4	0	0	0	0	104	1	0	230	1150	1.1	0.9;
	182003	1	0	0	0	0	104	1	-45.55918	230	1142	1.1	0.9;
	182004	1	0	0	0	0	104	1	-45.28255	230	1142	1.1	0.9;
	182005	4	0	0	0	0	104	1	0	230	1150	1.1	0.9;
	182007	1	0	0	0	0	104	1	-50.29818	230	1141	1.1	0.9;
	182030	1	0	0	0	0	104	1	-56.24798	230	1141	1.1	0.9;
	182055	1	0	0	0	0	104	1	-52.80447	230	1153	1.1	0.9;
	182056	1	176.66084	0	0	0	104	1	-52.83234	230	1153	1.1	0.9;
	182070	2	0	0	0	0	104	1	-49.6304	230	1141	1.1	0.9;
	182071	2	0	0	0	0	104	1	-43.60528	230	1142	1.1	0.9;
	182073	1	353.872971	0	0	0	104	1	-50.40866	230	1175	1.1	0.9;
	182078	1	216.778935	0	0	0	104	1	-50.27827	230	1175	1.1	0.9;
	182081	2	0	0	0	0	104	1	-43.09839	230	1142	1.1	0.9;
	182085	1	0	0	0	0	104	1	-51.30574	230	1141	1.1	0.9;
	182086	1	226.541266	0	0	0	104	1	-54.9431	230	1153	1.1	0.9;
	182087	1	222.905233	0	0	0	104	1	-54.91778	230	1153	1.1	0.9;
	182088	1	219.549313	0	0	0	104	1	-54.90199	230	1153	1.1	0.9;
	182090	1	0	0	0	0	104	1	-47.17215	230	1142	1.1	0.9;
	182100	2	21.8439736	0	0	0	104	1	-49.39928	230	1141	1.1	0.9;
	182132	1	141.695463	0	0	0	104	1	-39.87108	230	1147	1.1	0.9;
	182137	1	104.002998	0	0	0	104	1	-45.4636	230	1142	1.1	0.9;
	182143	2	107.252258	0	0	0	104	1	-59.54089	230	1143	1.1	0.9;
	182172	1	0	0	0	0	104	1	-47.01781	230	1140	1.1	0.9;
	182173	1	48.8689854	0	0	0	104	1	-46.83875	230	1140	1.1	0.9;
	182174	1	10.5352574	0	0	0	104	1	-49.65902	230	1140	1.1	0.9;
	182178	2	371.122027	0	0	0	104	1	-50.9886	230	1142	1.1	0.9;
	182188	1	0	0	0	0	104	1	-51.37181	230	1142	1.1	0.9;
	182198	1	37.3717027	0	0	0	104	1	-47.28206	230	1142	1.1	0.9;
	182199	1	36.440292	0	0	0	104	1	-47.26043	230	1142	1.1	0.9;
	182201	1	21.0347676	0	0	0	104	1	-44.38591	230	1140	1.1	0.9;
	182210	1	0	0	0	0	104	1	-56.47334	230	1153	1.1	0.9;
	182217	2	0	0	0	0	104	1	-51.32813	230	1142	1.1	0.9;